140 

Mg	72.3635025024414	110.81938934326172	40.1316032409668
C	74.25032806396484	108.06614685058594	40.126224517822266
C	69.49788665771484	108.94981384277344	40.57456970214844
C	70.5419921875	113.79309844970703	40.129798889160156
C	75.34014892578125	112.81932067871094	40.04220962524414
N	71.97499084472656	108.84136199951172	40.36659622192383
C	72.86917114257812	107.82681274414062	40.15975570678711
C	72.3067626953125	106.44042205810547	40.369895935058594
C	70.79945373535156	106.72444152832031	40.48113250732422
C	70.7098617553711	108.259765625	40.494327545166016
C	69.88995361328125	106.01947021484375	39.419979095458984
C	72.8084716796875	105.65239715576172	41.5848388671875
C	72.9885025024414	106.50552368164062	42.85912322998047
C	73.62910461425781	105.81177520751953	44.10177230834961
O	74.13764190673828	104.6772689819336	44.16046142578125
O	73.6751708984375	106.71974182128906	45.148624420166016
N	70.22901916503906	111.24943542480469	40.244224548339844
C	69.25910949707031	110.32019805908203	40.556114196777344
C	68.00630187988281	111.04306030273438	40.755062103271484
C	68.30091094970703	112.46613311767578	40.64324188232422
C	69.76065826416016	112.56410217285156	40.29671096801758
C	66.74832153320312	110.35946655273438	41.044864654541016
C	67.33313751220703	113.6439437866211	40.898250579833984
O	66.11697387695312	113.34210205078125	41.01628112792969
C	67.77674865722656	115.04849243164062	41.09986114501953
N	72.85881805419922	112.94830322265625	40.04036331176758
C	71.92363739013672	113.9693374633789	40.126033782958984
C	72.63617706298828	115.31330871582031	39.988983154296875
C	74.19134521484375	114.95796203613281	39.961524963378906
C	74.17333984375	113.46439361572266	40.065120697021484
C	72.18773651123047	116.01497650146484	38.71425247192383
C	75.09782409667969	115.67292785644531	40.99424743652344
C	75.08587646484375	117.23998260498047	40.997806549072266
N	74.31463623046875	110.54035186767578	40.133934020996094
C	75.4114990234375	111.36540222167969	40.09175109863281
C	76.62629699707031	110.55587005615234	40.09818649291992
C	76.29680633544922	109.21118927001953	40.05707550048828
C	74.85501861572266	109.31075286865234	40.122169494628906
C	77.96709442138672	111.21333312988281	40.02585983276367
C	76.72190856933594	107.80716705322266	39.999244689941406
O	77.86940002441406	107.32369995117188	40.011009216308594
C	75.32733917236328	106.99449157714844	40.021671295166016
C	75.35783386230469	106.17768859863281	38.69333267211914
O	75.6356201171875	104.98092651367188	38.60500717163086
O	74.99706268310547	106.95561218261719	37.65242385864258
C	74.96943664550781	106.21888732910156	36.368499755859375
C	74.57528686523438	106.33815002441406	46.260887145996094
C	74.30060577392578	107.4771499633789	47.226158142089844
C	73.4952621459961	107.43130493164062	48.327842712402344
C	72.7142105102539	106.13388061523438	48.73191452026367
C	73.03353118896484	108.6612319946289	49.11089324951172
C	71.80989074707031	109.34718322753906	48.35124588012695
C	70.89988708496094	110.125732421875	49.368385314941406
C	70.043701171875	109.2855224609375	50.409202575683594
C	69.0526351928711	108.35587310791016	49.72991943359375
C	69.39744567871094	110.18482971191406	51.5473518371582
C	68.14347839355469	109.591552734375	52.25074768066406
C	68.39909362792969	108.4316177368164	53.21260070800781
C	67.1108169555664	107.87879180908203	53.953739166259766
C	66.09432983398438	107.2413558959961	52.96646499633789
C	66.4235610961914	108.98284149169922	54.851280212402344
C	67.23143005371094	109.41780853271484	56.0560188293457
C	66.3872299194336	110.29427337646484	57.02549743652344
C	67.26905059814453	110.98155975341797	58.18449401855469
C	66.27076721191406	111.33143615722656	59.267478942871094
C	68.04141998291016	112.2086410522461	57.65616989135742
H	68.69825744628906	108.24427795410156	40.80964660644531
H	69.95341491699219	114.70527648925781	40.011566162109375
H	76.26509094238281	113.39977264404297	40.04678726196289
H	72.5218505859375	105.85372161865234	39.47679901123047
H	70.4570083618164	106.34749603271484	41.44485092163086
H	69.95820617675781	104.95316314697266	39.635501861572266
H	70.27706909179688	106.07792663574219	38.402713775634766
H	68.86723327636719	106.38864135742188	39.4964714050293
H	73.70040130615234	105.08773040771484	41.31336975097656
H	72.09701538085938	104.85808563232422	41.81064987182617
H	72.05451965332031	106.916748046875	43.24210739135742
H	73.5022964477539	107.44410705566406	42.65132522583008
H	66.0062255859375	110.71094512939453	40.328025817871094
H	66.58277130126953	110.5800552368164	42.09939956665039
H	66.8292236328125	109.30648040771484	40.775184631347656
H	68.66146850585938	115.18159484863281	41.72248458862305
H	67.03008270263672	115.65833282470703	41.608489990234375
H	67.97825622558594	115.48430633544922	40.12131118774414
H	72.31265258789062	115.97293090820312	40.7941780090332
H	74.64927673339844	115.22921752929688	39.01030731201172
H	72.90547943115234	116.75354766845703	38.357261657714844
H	72.25041198730469	115.19222259521484	38.00204086303711
H	71.19947814941406	116.43299865722656	38.90582275390625
H	76.08518981933594	115.23930358886719	41.15293502807617
H	74.55537414550781	115.52623748779297	41.92823791503906
H	75.07577514648438	117.5655517578125	39.95761489868164
H	75.81198120117188	117.733642578125	41.643699645996094
H	74.11456298828125	117.54417419433594	41.387847900390625
H	78.03158569335938	111.62127685546875	39.01713562011719
H	78.59469604492188	110.3456802368164	40.22930145263672
H	77.97500610351562	112.0357894897461	40.74112319946289
H	75.3056411743164	106.3821792602539	40.92316436767578
H	74.41404724121094	105.28329467773438	36.43404006958008
H	75.99541473388672	105.88927459716797	36.20470428466797
H	74.6768798828125	106.73531341552734	35.45427322387695
H	75.58546447753906	106.26671600341797	45.85770034790039
H	74.179443359375	105.40106964111328	46.65241241455078
H	74.74193572998047	108.3900146484375	46.82615280151367
H	72.14017486572266	105.66996765136719	47.9298095703125
H	72.01731872558594	106.50115203857422	49.48527908325195
H	73.3890380859375	105.47488403320312	49.2781982421875
H	73.90210723876953	109.30177307128906	49.26382064819336
H	72.83853149414062	108.48731231689453	50.16910934448242
H	72.21968078613281	109.95014953613281	47.540931701660156
H	71.13514709472656	108.582275390625	47.96685028076172
H	71.51771545410156	110.74321746826172	50.02037811279297
H	70.23252868652344	110.81726837158203	48.85408401489258
H	70.73345947265625	108.54674530029297	50.81727981567383
H	68.1828842163086	108.86795806884766	49.318336486816406
H	69.59370422363281	107.72850036621094	49.021575927734375
H	68.67448425292969	107.63098907470703	50.45078659057617
H	70.14873504638672	110.66834259033203	52.1717529296875
H	68.94389343261719	111.02867889404297	51.027427673339844
H	67.86656188964844	110.36430358886719	52.967872619628906
H	67.3311538696289	109.26019287109375	51.6038932800293
H	69.15399169921875	108.79279327392578	53.91100311279297
H	68.87107849121094	107.56583404541016	52.748104095458984
H	67.46302795410156	107.112060546875	54.643802642822266
H	66.53909301757812	106.5677261352539	52.233985900878906
H	65.41820526123047	106.62459564208984	53.55854415893555
H	65.60417938232422	108.05549621582031	52.432594299316406
H	65.43772888183594	108.69292449951172	55.21487808227539
H	66.14248657226562	109.83047485351562	54.22629928588867
H	68.14014434814453	109.93626403808594	55.75019454956055
H	67.55667877197266	108.52873992919922	56.59626388549805
H	65.95695495605469	111.07513427734375	56.3984260559082
H	65.73995208740234	109.54286193847656	57.477725982666016
H	68.01512145996094	110.322265625	58.628135681152344
H	65.97775268554688	110.38967895507812	59.73152160644531
H	66.71521759033203	111.94293212890625	60.05274200439453
H	65.35965728759766	111.7067642211914	58.80153274536133
H	67.34540557861328	112.86190795898438	57.129940032958984
H	68.90338134765625	112.13587951660156	56.99296569824219
H	68.35804748535156	112.772705078125	58.533477783203125
