140 

Mg	115.30623626708984	77.07615661621094	40.4439582824707
C	111.86663818359375	76.3638916015625	40.57592010498047
C	114.50721740722656	80.20850372314453	41.23796081542969
C	118.65948486328125	77.68119812011719	40.32905960083008
C	115.92518615722656	73.74869537353516	39.87828063964844
N	113.43677520751953	78.13906860351562	40.784202575683594
C	112.15885162353516	77.68859100341797	40.80333709716797
C	111.1875991821289	78.7253189086914	41.1025390625
C	112.01600646972656	80.01712036132812	41.15217208862305
C	113.41254425048828	79.4290542602539	41.10447311401367
C	111.69802856445312	80.8620376586914	39.84638977050781
C	110.35160827636719	78.47022247314453	42.43571853637695
C	111.2835693359375	78.37858581542969	43.711219787597656
C	110.54315185546875	77.68184661865234	44.972877502441406
O	109.37153625488281	77.39080810546875	45.047916412353516
O	111.47689056396484	77.46394348144531	45.96181869506836
N	116.43115234375	78.7599868774414	40.695552825927734
C	115.89375305175781	79.94832611083984	40.99300765991211
C	116.9715805053711	80.91350555419922	40.969757080078125
C	118.16484069824219	80.18585968017578	40.71918869018555
C	117.81414794921875	78.81550598144531	40.540958404541016
C	116.73538208007812	82.33131408691406	41.321048736572266
C	119.52050018310547	80.75287628173828	40.67100143432617
O	119.67070770263672	81.92314910888672	40.790252685546875
C	120.80364227294922	79.85582733154297	40.725914001464844
N	117.04669189453125	75.89371490478516	40.00796890258789
C	118.29035949707031	76.37779998779297	40.0215950012207
C	119.35924530029297	75.2176742553711	39.89140319824219
C	118.543212890625	73.90951538085938	39.770965576171875
C	117.0907974243164	74.51566314697266	39.85325622558594
C	120.40831756591797	75.56893157958984	38.860050201416016
C	118.83446502685547	72.8828125	40.87000274658203
C	120.03966522216797	71.97975158691406	40.713966369628906
N	114.2104263305664	75.42376708984375	40.18309020996094
C	114.59750366210938	74.11869049072266	40.01470184326172
C	113.48529052734375	73.23464965820312	40.03383255004883
C	112.37834167480469	74.09378051757812	40.14974594116211
C	112.8531265258789	75.37574005126953	40.26909637451172
C	113.516845703125	71.7320556640625	40.0785026550293
C	110.86872100830078	74.13536834716797	40.28412628173828
O	110.07132720947266	73.22991180419922	40.43065643310547
C	110.52657318115234	75.59291076660156	40.604244232177734
C	109.55574798583984	76.03463745117188	39.54689407348633
O	108.39713287353516	76.44197082519531	39.68968963623047
O	110.14559936523438	75.955078125	38.33277893066406
C	109.29276275634766	76.55088806152344	37.30632019042969
C	111.06338500976562	76.63933563232422	47.0377311706543
C	112.01347351074219	76.90629577636719	48.21802520751953
C	112.38873291015625	78.13832092285156	48.66986083984375
C	111.81317138671875	79.44599914550781	48.20606231689453
C	113.41607666015625	78.33240509033203	49.69762420654297
C	114.7391128540039	78.82353210449219	49.09192657470703
C	115.89877319335938	79.12227630615234	50.1200065612793
C	115.67504119873047	80.30061340332031	51.1280632019043
C	115.4722671508789	81.64064025878906	50.367122650146484
C	116.86569213867188	80.39920806884766	52.12171173095703
C	117.00667572021484	81.61659240722656	53.05324935913086
C	115.81409454345703	81.80464935302734	53.95083999633789
C	115.71488189697266	83.26018524169922	54.622589111328125
C	115.47116088867188	84.32967376708984	53.53147506713867
C	116.90894317626953	83.71087646484375	55.58503723144531
C	117.04352569580078	82.8946304321289	56.819515228271484
C	118.2215805053711	83.38142395019531	57.71824645996094
C	118.36693572998047	82.51732635498047	58.981319427490234
C	119.33625793457031	83.29035949707031	59.91676712036133
C	118.7396240234375	81.04579162597656	58.662376403808594
H	114.24362182617188	81.26437377929688	41.328086853027344
H	119.75079345703125	77.71871948242188	40.33949279785156
H	116.1322021484375	72.6765365600586	39.887298583984375
H	110.45953369140625	78.7000732421875	40.291748046875
H	111.75528717041016	80.64950561523438	42.000823974609375
H	112.01654052734375	80.22067260742188	39.02462387084961
H	112.23887634277344	81.80241394042969	39.74026870727539
H	110.63347625732422	81.09573364257812	39.86093521118164
H	109.87828063964844	77.48836517333984	42.43339538574219
H	109.56732940673828	79.22473907470703	42.496429443359375
H	111.73995208740234	79.31809997558594	44.02289962768555
H	112.1644515991211	77.77893829345703	43.48190689086914
H	116.20600891113281	82.65138244628906	40.42360305786133
H	117.67859649658203	82.87727355957031	41.301151275634766
H	116.16657257080078	82.61371612548828	42.20693588256836
H	120.838134765625	79.14765930175781	41.553802490234375
H	121.68358612060547	80.4576416015625	40.95310974121094
H	121.10137176513672	79.45317077636719	39.757755279541016
H	119.9244384765625	75.17987060546875	40.822654724121094
H	118.64395141601562	73.55463409423828	38.74528884887695
H	120.87580871582031	74.65147399902344	38.50254440307617
H	120.11512756347656	76.13140869140625	37.97362518310547
H	121.1483154296875	76.13082122802734	39.42992401123047
H	118.05255126953125	72.1243667602539	40.83173751831055
H	118.84761810302734	73.36632537841797	41.846805572509766
H	120.92581939697266	72.36913299560547	41.215171813964844
H	120.1546630859375	71.85261535644531	39.637535095214844
H	119.90310668945312	71.05984497070312	41.28249740600586
H	113.59973907470703	71.27408599853516	39.09286117553711
H	112.60243225097656	71.382080078125	40.55753707885742
H	114.3483657836914	71.32582092285156	40.65439224243164
H	109.9653549194336	75.59581756591797	41.53865432739258
H	109.89173126220703	76.55459594726562	36.39563751220703
H	108.92810821533203	77.56631469726562	37.46125793457031
H	108.37508392333984	75.99009704589844	37.12897491455078
H	111.06813049316406	75.559814453125	46.88703155517578
H	110.04165649414062	76.7732162475586	47.39303970336914
H	112.61871337890625	76.06812286376953	48.5633544921875
H	110.77628326416016	79.24520874023438	47.936588287353516
H	112.42625427246094	79.7586441040039	47.36079788208008
H	111.79025268554688	80.17131042480469	49.01939010620117
H	113.59117126464844	77.32664489746094	50.07955551147461
H	113.01982116699219	79.06707763671875	50.398582458496094
H	115.21636199951172	78.06494140625	48.47154998779297
H	114.52452850341797	79.67726135253906	48.44911575317383
H	116.36016082763672	78.2157211303711	50.51165008544922
H	116.65966033935547	79.52178192138672	49.44952392578125
H	114.79708862304688	80.09545135498047	51.74061584472656
H	116.29824829101562	81.87092590332031	49.69419479370117
H	114.56267547607422	81.5894775390625	49.76871109008789
H	115.29529571533203	82.47505950927734	51.045738220214844
H	116.85004425048828	79.5252685546875	52.772926330566406
H	117.77169036865234	80.3098373413086	51.522300720214844
H	117.86717224121094	81.41822814941406	53.69222640991211
H	117.12958526611328	82.52571105957031	52.46460723876953
H	115.91693878173828	80.9947280883789	54.67304229736328
H	114.98786163330078	81.3843994140625	53.37741470336914
H	114.8912353515625	83.18473815917969	55.332523345947266
H	114.73834228515625	84.08360290527344	52.76301956176758
H	115.08357238769531	85.25154113769531	53.96506881713867
H	116.43268585205078	84.59598541259766	53.09257507324219
H	116.82006072998047	84.75718688964844	55.877357482910156
H	117.853515625	83.5552978515625	55.063819885253906
H	117.05863189697266	81.84832763671875	56.514373779296875
H	116.12004089355469	83.21055603027344	57.30476760864258
H	119.16861724853516	83.3742446899414	57.17866897583008
H	118.1904296875	84.4546127319336	57.906402587890625
H	117.47803497314453	82.50713348388672	59.61206817626953
H	119.57381439208984	82.60696411132812	60.73202133178711
H	120.30109405517578	83.43802642822266	59.43159103393555
H	118.96171569824219	84.28639221191406	60.15283203125
H	117.87593078613281	80.49292755126953	58.2929573059082
H	119.03404998779297	80.51707458496094	59.56894302368164
H	119.54316711425781	80.9427719116211	57.933135986328125
