140 

Mg	59.26139450073242	70.31067657470703	57.07939147949219
C	61.21272659301758	69.42211151123047	54.312705993652344
C	57.52828598022461	72.51488494873047	55.00872039794922
C	57.4921760559082	71.24461364746094	59.760215759277344
C	61.453433990478516	68.51095581054688	59.060302734375
N	59.28472137451172	70.81010437011719	54.987083435058594
C	60.07752990722656	70.19697570800781	54.040409088134766
C	59.680362701416016	70.59246826171875	52.628475189208984
C	58.732017517089844	71.79938507080078	52.904170989990234
C	58.430389404296875	71.68830108642578	54.36582565307617
C	59.29685974121094	73.12232208251953	52.45557403564453
C	59.064002990722656	69.39398193359375	51.790470123291016
C	59.15938949584961	69.58876037597656	50.251930236816406
C	58.127349853515625	68.75088500976562	49.48834991455078
O	57.343833923339844	67.89349365234375	49.96700668334961
O	58.18500900268555	69.04898071289062	48.20133972167969
N	57.653892517089844	71.656982421875	57.29620361328125
C	57.175785064697266	72.5505142211914	56.40814208984375
C	56.426177978515625	73.53665924072266	57.13497543334961
C	56.356292724609375	73.14800262451172	58.534854888916016
C	57.19127655029297	71.99347686767578	58.56359100341797
C	55.97829818725586	74.71184539794922	56.45764923095703
C	55.79402542114258	73.95463562011719	59.62551498413086
O	55.71971893310547	73.56775665283203	60.80113983154297
C	55.31427001953125	75.30207824707031	59.39662551879883
N	59.283660888671875	69.75882720947266	59.043479919433594
C	58.4297981262207	70.2594985961914	60.018192291259766
C	58.77111053466797	69.67142486572266	61.39875030517578
C	60.097843170166016	68.7988052368164	61.135826110839844
C	60.285030364990234	69.02134704589844	59.629425048828125
C	59.016361236572266	70.78577423095703	62.4638557434082
C	59.89902877807617	67.26921844482422	61.51042938232422
C	59.91788864135742	67.03053283691406	63.00483703613281
N	61.01467514038086	69.26818084716797	56.80113220214844
C	61.7873420715332	68.61161804199219	57.749210357666016
C	63.0128173828125	68.17839050292969	57.09959411621094
C	62.838111877441406	68.47185516357422	55.759971618652344
C	61.599815368652344	69.09732055664062	55.62656021118164
C	64.05519104003906	67.43130493164062	57.7066650390625
C	63.428016662597656	68.20285034179688	54.3925895690918
O	64.4162826538086	67.5716323852539	53.97576904296875
C	62.25767517089844	68.75183868408203	53.47500228881836
C	62.88798904418945	69.65621185302734	52.38326644897461
O	63.47488784790039	70.71707153320312	52.60416030883789
O	62.6539192199707	69.23541259765625	51.10712432861328
C	63.004966735839844	70.08806610107422	49.989723205566406
C	57.17030334472656	68.33773803710938	47.356075286865234
C	55.95658874511719	69.08427429199219	47.551612854003906
C	55.73933029174805	70.36946105957031	47.27861404418945
C	56.86177062988281	71.32379150390625	46.795040130615234
C	54.25485610961914	70.84728240966797	47.541160583496094
C	53.44483184814453	70.50962829589844	46.32773971557617
C	51.91313171386719	70.59138488769531	46.63474655151367
C	51.20263671875	71.99981689453125	46.71279525756836
C	49.71244430541992	71.87425231933594	47.05588912963867
C	51.53079605102539	72.87972259521484	45.4547119140625
C	52.6728630065918	73.94781494140625	45.52173614501953
C	52.26875686645508	75.16624450683594	46.37092971801758
C	51.586578369140625	76.41195678710938	45.6470832824707
C	50.3494873046875	75.95721435546875	44.87269973754883
C	52.607540130615234	77.09493255615234	44.76993179321289
C	53.454139709472656	78.0953369140625	45.62228775024414
C	54.23523712158203	79.09362030029297	44.672828674316406
C	55.4254150390625	79.8824462890625	45.374610900878906
C	54.946041107177734	80.5136489868164	46.71479034423828
C	56.038414001464844	80.95305633544922	44.33940505981445
H	56.78083038330078	73.01271057128906	54.38747787475586
H	57.07710266113281	71.61671447753906	60.699214935302734
H	62.20109939575195	68.0239486694336	59.6898078918457
H	60.617794036865234	70.88206481933594	52.153663635253906
H	57.7753791809082	71.72674560546875	52.38681411743164
H	59.195152282714844	73.27269744873047	51.380802154541016
H	60.32330322265625	73.22093963623047	52.808834075927734
H	58.725868225097656	73.98271179199219	52.804561614990234
H	58.02554702758789	69.2275390625	52.076820373535156
H	59.45161819458008	68.42243194580078	52.096961975097656
H	60.08952713012695	69.19860076904297	49.8387565612793
H	58.917694091796875	70.63553619384766	50.067691802978516
H	56.464820861816406	75.52743530273438	56.99262619018555
H	54.89311599731445	74.77555084228516	56.53783416748047
H	56.32129669189453	74.76005554199219	55.42415237426758
H	54.580387115478516	75.42168426513672	58.5996208190918
H	56.16153335571289	75.94591522216797	59.16055679321289
H	54.75314712524414	75.60150909423828	60.28182601928711
H	57.98805618286133	69.01065063476562	61.77064895629883
H	60.87709426879883	69.26007843017578	61.742523193359375
H	58.05741882324219	71.25820922851562	62.676780700683594
H	59.368587493896484	70.43783569335938	63.4349250793457
H	59.76199722290039	71.49844360351562	62.11137390136719
H	60.72266387939453	66.79292297363281	60.978580474853516
H	58.93600845336914	67.00712585449219	61.07225799560547
H	59.037872314453125	67.38143920898438	63.54384994506836
H	60.71189880371094	67.68363189697266	63.3669319152832
H	60.134395599365234	66.02346801757812	63.361263275146484
H	63.615318298339844	66.83988189697266	58.50967788696289
H	64.92807006835938	67.95968627929688	58.09007263183594
H	64.32323455810547	66.65507507324219	56.98992156982422
H	61.644371032714844	67.94808197021484	53.06766128540039
H	63.87529754638672	70.73236083984375	50.11421203613281
H	62.189735412597656	70.8011245727539	49.8670539855957
H	63.154579162597656	69.40734100341797	49.15167236328125
H	57.05722427368164	67.30718994140625	47.6926383972168
H	57.53810501098633	68.3509521484375	46.33008575439453
H	55.179996490478516	68.50272369384766	48.04840850830078
H	57.528690338134766	71.53397369384766	47.63118362426758
H	56.463199615478516	72.26939392089844	46.427520751953125
H	57.555599212646484	70.85182189941406	46.09937286376953
H	54.27427673339844	71.9221420288086	47.72119140625
H	53.881011962890625	70.35777282714844	48.44044494628906
H	53.769935607910156	71.16648864746094	45.520931243896484
H	53.71589279174805	69.47268676757812	46.129268646240234
H	51.383270263671875	69.9710693359375	45.911865234375
H	51.68195343017578	70.11454010009766	47.587249755859375
H	51.7811393737793	72.5099105834961	47.483009338378906
H	49.590450286865234	71.44623565673828	48.05088424682617
H	49.20492172241211	72.83747863769531	47.003841400146484
H	49.2115364074707	71.1806411743164	46.38053894042969
H	51.97712707519531	72.22238159179688	44.708526611328125
H	50.6510124206543	73.2539291381836	44.93120574951172
H	53.574222564697266	73.55345916748047	45.990909576416016
H	52.96337890625	74.3086929321289	44.53508758544922
H	53.154266357421875	75.49140167236328	46.91704177856445
H	51.53079605102539	74.918701171875	47.133975982666016
H	51.31201171875	77.18572235107422	46.36402130126953
H	49.60212326049805	75.59513854980469	45.57870864868164
H	49.9876823425293	76.79811096191406	44.28102111816406
H	50.63291931152344	75.20015716552734	44.141517639160156
H	52.02737808227539	77.66481018066406	44.04415512084961
H	53.171939849853516	76.38085174560547	44.170230865478516
H	54.1144905090332	77.48116302490234	46.23451614379883
H	52.83494567871094	78.78269958496094	46.19867706298828
H	54.68696212768555	78.6843032836914	43.769222259521484
H	53.57353973388672	79.78404998779297	44.14979934692383
H	56.23951721191406	79.24101257324219	45.71208953857422
H	55.543426513671875	81.36817169189453	47.032657623291016
H	53.88123321533203	80.7401351928711	46.66009521484375
H	54.85786056518555	79.86627960205078	47.5872802734375
H	56.59128189086914	80.36698913574219	43.60526657104492
H	56.753849029541016	81.61186218261719	44.83157730102539
H	55.282039642333984	81.6256103515625	43.93485641479492
