280 

Mg	72.12799072265625	57.558685302734375	57.116695404052734
C	74.19728088378906	57.93705368041992	54.326377868652344
C	69.36539459228516	58.05618667602539	55.1834831237793
C	70.17841339111328	57.306312561035156	59.880062103271484
C	74.94683837890625	57.336143493652344	59.08704376220703
N	71.80997467041016	57.7637939453125	54.99698257446289
C	72.7625961303711	57.94944381713867	54.022071838378906
C	72.11772155761719	58.0674934387207	52.64186477661133
C	70.58535766601562	58.09665298461914	53.00514602661133
C	70.54441833496094	58.015380859375	54.51070785522461
C	70.0662612915039	59.35309982299805	52.34748458862305
C	72.44400024414062	56.8897819519043	51.72012710571289
C	72.15425109863281	57.07365417480469	50.268035888671875
C	72.10028839111328	56.023983001708984	49.191070556640625
O	71.96343231201172	54.821659088134766	49.37837600708008
O	72.16790008544922	56.57726287841797	47.98119354248047
N	70.07540130615234	57.72156524658203	57.53330993652344
C	69.05240631103516	57.91162109375	56.57682418823242
C	67.77720642089844	58.06617736816406	57.243629455566406
C	68.06538391113281	57.88587188720703	58.591190338134766
C	69.44401550292969	57.60801696777344	58.72634506225586
C	66.42292785644531	58.35655975341797	56.5870361328125
C	67.08617401123047	57.97660446166992	59.81568145751953
O	67.44239044189453	58.0738639831543	60.9785270690918
C	65.5879135131836	57.992862701416016	59.56081771850586
N	72.53974151611328	57.061458587646484	59.15296936035156
C	71.56675720214844	57.075096130371094	60.12881851196289
C	72.10777282714844	56.81251907348633	61.50465393066406
C	73.63915252685547	56.86262512207031	61.225372314453125
C	73.7287826538086	57.074790954589844	59.798465728759766
C	71.64892578125	57.907596588134766	62.54029846191406
C	74.42677307128906	55.54144287109375	61.71407699584961
C	74.54681396484375	55.14063262939453	63.15284729003906
N	74.16995239257812	57.64318084716797	56.787200927734375
C	75.20820617675781	57.56787872314453	57.67311477661133
C	76.48392486572266	57.83384323120117	57.038124084472656
C	76.1061019897461	57.945919036865234	55.696449279785156
C	74.69369506835938	57.847782135009766	55.61008071899414
C	77.80770111083984	58.25763702392578	57.50321960449219
C	76.58614349365234	58.23600387573242	54.371849060058594
O	77.73751831054688	58.53458786010742	54.060752868652344
C	75.38279724121094	58.08224105834961	53.39851760864258
C	75.26605224609375	59.25267791748047	52.446556091308594
O	75.1769027709961	60.40569305419922	52.803131103515625
O	75.1395034790039	58.81645584106445	51.14606857299805
C	74.84182739257812	59.89242172241211	50.215152740478516
C	71.90522003173828	55.73834228515625	46.84135055541992
C	70.40998077392578	55.38997268676758	46.73598861694336
C	69.38485717773438	55.967960357666016	46.08661651611328
C	69.59156799316406	57.197147369384766	45.233341217041016
C	67.98506164550781	55.380496978759766	46.167144775390625
C	67.64093017578125	54.38895797729492	44.97500991821289
C	66.36688995361328	53.474395751953125	45.328067779541016
C	65.07075500488281	54.2613639831543	45.468421936035156
C	63.95099639892578	53.238487243652344	45.72843551635742
C	64.71466827392578	55.1405143737793	44.11876678466797
C	65.06417083740234	56.59791564941406	43.89223098754883
C	64.8350830078125	57.574745178222656	45.16780471801758
C	63.31626892089844	58.05290985107422	45.45016860961914
C	62.36238098144531	56.786964416503906	45.66730499267578
C	62.623897552490234	58.91605758666992	44.35161209106445
C	63.28546142578125	60.276885986328125	44.050865173339844
C	62.908668518066406	61.31068801879883	45.177276611328125
C	63.820987701416016	62.57915115356445	45.1038703918457
C	63.68757247924805	63.27296829223633	46.49009704589844
C	63.37164306640625	63.453182220458984	43.90873336791992
H	68.42890930175781	58.200164794921875	54.640586853027344
H	69.6385498046875	57.25099563598633	60.82767105102539
H	75.71526336669922	57.270164489746094	59.86011505126953
H	72.50642395019531	59.01952362060547	52.28040313720703
H	70.06240844726562	57.197994232177734	52.67796325683594
H	70.26966857910156	60.1939582824707	53.01056671142578
H	68.98381042480469	59.36397171020508	52.21989059448242
H	70.44196319580078	59.46761703491211	51.33071517944336
H	71.8755111694336	56.055816650390625	52.131744384765625
H	73.46703338623047	56.513832092285156	51.733280181884766
H	72.88996887207031	57.7308235168457	49.804420471191406
H	71.15435791015625	57.5025520324707	50.201927185058594
H	65.92566680908203	59.24473190307617	56.97689437866211
H	65.74797058105469	57.500709533691406	56.579280853271484
H	66.55641174316406	58.73234176635742	55.57260513305664
H	65.49549102783203	59.03768539428711	59.26433181762695
H	65.00091552734375	57.916263580322266	60.47605895996094
H	65.19817352294922	57.25801467895508	58.856407165527344
H	71.72880554199219	55.89555358886719	61.9559326171875
H	74.21742248535156	57.57776641845703	61.81041717529297
H	70.59100341796875	57.78706359863281	62.77347183227539
H	72.2521743774414	57.74932861328125	63.43425369262695
H	71.97595977783203	58.88139343261719	62.17579650878906
H	75.4404525756836	55.592647552490234	61.31667709350586
H	73.91926574707031	54.74745178222656	61.1662483215332
H	75.07874298095703	55.88056945800781	63.750885009765625
H	74.9049072265625	54.128013610839844	63.338504791259766
H	73.5565185546875	55.146976470947266	63.60822677612305
H	78.14877319335938	58.882911682128906	56.67811965942383
H	78.44873046875	57.40081787109375	57.710689544677734
H	77.76675415039062	58.908348083496094	58.37671661376953
H	75.70670318603516	57.20318603515625	52.841346740722656
H	74.42633819580078	59.46493148803711	49.302616119384766
H	75.76345825195312	60.36590576171875	49.87678527832031
H	74.16694641113281	60.6309700012207	50.64779281616211
H	72.44694519042969	54.79751968383789	46.938743591308594
H	72.36113739013672	56.307979583740234	46.03155517578125
H	70.04214477539062	54.40841293334961	47.034889221191406
H	69.27433013916016	57.101436614990234	44.19492721557617
H	70.66476440429688	57.381595611572266	45.281532287597656
H	68.95962524414062	57.95871353149414	45.69023513793945
H	67.27351379394531	56.20258331298828	46.24454116821289
H	67.87362670898438	54.90653610229492	47.142356872558594
H	67.41234588623047	54.917869567871094	44.04975509643555
H	68.44999694824219	53.68817901611328	44.7690544128418
H	66.23333740234375	52.90937042236328	44.405574798583984
H	66.60585021972656	52.695472717285156	46.05213928222656
H	65.13446044921875	54.937015533447266	46.321380615234375
H	64.05713653564453	52.743896484375	46.69395065307617
H	63.04401779174805	53.820594787597656	45.89167022705078
H	63.99089431762695	52.497711181640625	44.929832458496094
H	65.28380584716797	54.683956146240234	43.30898666381836
H	63.65299987792969	55.08785629272461	43.87754821777344
H	66.12744140625	56.59164047241211	43.65241622924805
H	64.52688598632812	57.041786193847656	43.05413818359375
H	65.47135925292969	58.433380126953125	44.95332336425781
H	65.18416595458984	57.042728424072266	46.05278015136719
H	63.33852767944336	58.67237091064453	46.34675598144531
H	61.462398529052734	57.040504455566406	46.2275276184082
H	62.14591598510742	56.44837188720703	44.654090881347656
H	62.954071044921875	56.07023239135742	46.23677062988281
H	61.614986419677734	59.13811492919922	44.699283599853516
H	62.49456787109375	58.41781234741211	43.39081573486328
H	62.86117935180664	60.813720703125	43.20240020751953
H	64.36396026611328	60.190616607666016	43.9185905456543
H	61.866310119628906	61.628013610839844	45.147396087646484
H	63.18651580810547	60.822601318359375	46.1114501953125
H	64.8503646850586	62.22725296020508	45.03575134277344
H	64.26736450195312	62.69076919555664	47.20632553100586
H	64.04315185546875	64.30149841308594	46.55159378051758
H	62.66069793701172	63.38311767578125	46.83866500854492
H	63.897518157958984	64.40724182128906	43.94527816772461
H	62.29494094848633	63.61781692504883	43.8673095703125
H	63.71728515625	62.998313903808594	42.98044204711914
Mg	65.69563293457031	62.99390411376953	57.16987228393555
C	63.89936065673828	64.13310241699219	54.47684860229492
C	68.10177612304688	61.785091400146484	55.11394119262695
C	67.36360931396484	61.8305549621582	59.89198684692383
C	63.089683532714844	63.92137145996094	59.28800582885742
N	65.92579650878906	62.88764572143555	55.040531158447266
C	65.08662414550781	63.40121841430664	54.0977668762207
C	65.44512176513672	62.98822021484375	52.730220794677734
C	66.67987060546875	62.052398681640625	53.0158576965332
C	66.93670654296875	62.24677658081055	54.455955505371094
C	66.4033203125	60.60411071777344	52.629756927490234
C	65.71263885498047	64.18608856201172	51.774681091308594
C	66.06126403808594	63.71624755859375	50.37765121459961
C	66.36676788330078	64.83354949951172	49.3592643737793
O	66.51934814453125	65.9849624633789	49.65446090698242
O	66.42713928222656	64.42655181884766	48.023563385009766
N	67.57233428955078	62.23809814453125	57.4962272644043
C	68.37521362304688	61.824222564697266	56.5059700012207
C	69.6666488647461	61.51787567138672	57.149349212646484
C	69.45280456542969	61.46629333496094	58.534324645996094
C	68.09073638916016	61.8229866027832	58.72686767578125
C	70.8583984375	61.25907516479492	56.29996871948242
C	70.4456787109375	61.04597473144531	59.592918395996094
O	70.17890167236328	60.93133544921875	60.80402755737305
C	71.85670471191406	60.64235305786133	59.23660659790039
N	65.32444763183594	62.86144256591797	59.26836013793945
C	66.11195373535156	62.31220626831055	60.1884880065918
C	65.54692077636719	62.26981735229492	61.56084060668945
C	64.2642822265625	63.08636474609375	61.40031433105469
C	64.17657470703125	63.29397201538086	59.87788772583008
C	65.29076385498047	60.87112045288086	62.12940216064453
C	64.25382995605469	64.4342041015625	62.2022590637207
C	65.24681854248047	65.44622802734375	61.81577682495117
N	63.855289459228516	63.88175964355469	56.965850830078125
C	62.9209098815918	64.13864135742188	57.88577651977539
C	61.807350158691406	64.7907943725586	57.25300216674805
C	62.12405776977539	64.85446166992188	55.88262176513672
C	63.409114837646484	64.30963897705078	55.79368209838867
C	60.55976867675781	65.29885864257812	57.923065185546875
C	61.59378433227539	65.15943908691406	54.61051940917969
O	60.424407958984375	65.57247161865234	54.35414123535156
C	62.792945861816406	64.7348861694336	53.57680892944336
C	62.21519470214844	63.71902084350586	52.57415771484375
O	61.6068115234375	62.7109375	52.86003112792969
O	62.38078689575195	64.07963562011719	51.25632858276367
C	61.704200744628906	63.31632995605469	50.21241760253906
C	66.45175170898438	65.48017883300781	47.02836990356445
C	66.84602355957031	64.83174896240234	45.64487838745117
C	66.84479522705078	65.44510650634766	44.4535026550293
C	66.45658874511719	66.9499740600586	44.20119857788086
C	67.2486801147461	64.71097564697266	43.22435760498047
C	68.67276000976562	65.15302276611328	42.77641296386719
C	69.79383850097656	64.73465728759766	43.69636917114258
C	71.23739624023438	64.87025451660156	43.113006591796875
C	72.25129699707031	63.94166564941406	43.872535705566406
C	71.7275619506836	66.36973571777344	43.31353759765625
C	72.76605987548828	66.9157943725586	42.28815460205078
C	72.14400482177734	67.05174255371094	40.90794372558594
C	73.08211517333984	67.7854232788086	39.91028594970703
C	73.4668197631836	69.25272369384766	40.37556457519531
C	72.43544006347656	67.62095642089844	38.421241760253906
C	72.73490905761719	66.25413513183594	37.74916076660156
C	71.65213012695312	65.83899688720703	36.709228515625
C	70.29612731933594	65.23188018798828	37.265228271484375
C	70.46650695800781	63.719120025634766	37.629207611083984
C	69.11040496826172	65.33068084716797	36.295440673828125
H	68.84423065185547	61.4014778137207	54.41104507446289
H	67.883544921875	61.32829666137695	60.710445404052734
H	62.31456756591797	64.3301010131836	59.93960952758789
H	64.64018249511719	62.41120147705078	52.27500915527344
H	67.4832763671875	62.550743103027344	52.473358154296875
H	65.38390350341797	60.35875701904297	52.92755126953125
H	67.22122192382812	60.02126693725586	53.0533561706543
H	66.53900909423828	60.4459342956543	51.55986785888672
H	66.47932434082031	64.8288345336914	52.20731735229492
H	64.83109283447266	64.81340789794922	51.642616271972656
H	65.12354278564453	63.234619140625	50.10052490234375
H	66.88029479980469	62.99702072143555	50.3758430480957
H	70.60353088378906	61.201534271240234	55.24174118041992
H	71.38815307617188	60.3128776550293	56.41025924682617
H	71.54353332519531	62.09758758544922	56.424861907958984
H	72.44722747802734	61.41392135620117	58.742576599121094
H	71.82286834716797	59.81551742553711	58.52717971801758
H	72.28947448730469	60.24784469604492	60.155941009521484
H	66.16104888916016	62.7180290222168	62.34189987182617
H	63.39206314086914	62.51632308959961	61.72028350830078
H	64.75926208496094	60.93519592285156	63.07887649536133
H	64.73155212402344	60.41147232055664	61.31447219848633
H	66.25837707519531	60.40493392944336	62.315120697021484
H	64.48487854003906	64.1160888671875	63.21887969970703
H	63.23937225341797	64.82554626464844	62.12588882446289
H	64.92840576171875	66.2518310546875	61.1541748046875
H	66.04165649414062	64.88165283203125	61.32835388183594
H	65.70569610595703	65.89301300048828	62.69777297973633
H	60.79796600341797	65.89722442626953	58.802452087402344
H	59.867881774902344	64.48312377929688	58.13275146484375
H	60.03125762939453	65.90596008300781	57.18807601928711
H	63.13290023803711	65.60979461669922	53.022674560546875
H	62.12057113647461	63.678794860839844	49.272544860839844
H	60.63178634643555	63.49277114868164	50.129390716552734
H	62.014198303222656	62.27592086791992	50.31011962890625
H	67.31568145751953	66.12633514404297	47.18398666381836
H	65.49983215332031	66.00757598876953	46.96680450439453
H	67.30205535888672	63.84177780151367	45.635284423828125
H	66.45277404785156	67.55179595947266	45.1099853515625
H	65.4863510131836	66.89109802246094	43.70798110961914
H	67.04542541503906	67.41741180419922	43.4119758605957
H	66.61434936523438	65.08711242675781	42.42170715332031
H	67.07041931152344	63.64399337768555	43.35805892944336
H	68.9405517578125	64.7279052734375	41.80911636352539
H	68.78951263427734	66.23657989501953	42.79568099975586
H	69.58832550048828	65.28412628173828	44.61503601074219
H	69.66280364990234	63.669952392578125	43.88959884643555
H	71.26119995117188	64.66828155517578	42.042144775390625
H	72.02978515625	62.891502380371094	43.68229675292969
H	73.21070861816406	64.17440795898438	43.410526275634766
H	72.30370330810547	63.99403381347656	44.96002197265625
H	70.91090393066406	67.07511138916016	43.15990447998047
H	72.17601013183594	66.52012634277344	44.295562744140625
H	72.97850036621094	67.9692153930664	42.47056579589844
H	73.65653228759766	66.28826141357422	42.32516860961914
H	71.34913635253906	67.759521484375	41.14317321777344
H	71.84477233886719	66.0703125	40.540042877197266
H	74.03351593017578	67.2596435546875	39.82966613769531
H	73.97940063476562	69.1494140625	41.33196258544922
H	74.10763549804688	69.85332489013672	39.730010986328125
H	72.57756805419922	69.86438751220703	40.527854919433594
H	72.90393829345703	68.41315460205078	37.83726501464844
H	71.3544921875	67.76091766357422	38.42935562133789
H	72.63939666748047	65.5233383178711	38.552223205566406
H	73.75201416015625	66.25911712646484	37.3572883605957
H	71.43841552734375	66.7508773803711	36.15163040161133
H	72.13721466064453	65.16336059570312	36.00474548339844
H	70.08172607421875	65.7920913696289	38.17533493041992
H	69.69570922851562	63.48057556152344	38.36205291748047
H	70.27474975585938	63.0891227722168	36.760623931884766
H	71.47247314453125	63.528018951416016	38.00283432006836
H	68.25901794433594	64.76243591308594	36.670040130615234
H	69.42606353759766	64.846923828125	35.37108612060547
H	68.74667358398438	66.3564224243164	36.23508834838867
