280 

Mg	105.95504760742188	65.68114471435547	56.7618522644043
C	105.87128448486328	67.66566467285156	53.952484130859375
C	105.29191589355469	63.02064514160156	54.722381591796875
C	106.28030395507812	63.65263366699219	59.47135543823242
C	106.26316833496094	68.46149444580078	58.791996002197266
N	105.59821319580078	65.43144226074219	54.629573822021484
C	105.66558837890625	66.36006927490234	53.64079284667969
C	105.3959732055664	65.79740905761719	52.22810363769531
C	104.99980926513672	64.31998443603516	52.63288879394531
C	105.32426452636719	64.21871185302734	54.132102966308594
C	103.44105529785156	64.1698989868164	52.43366241455078
C	106.63446044921875	65.81825256347656	51.315399169921875
C	106.3687515258789	65.1860122680664	49.8765754699707
C	107.55564880371094	65.16620635986328	48.88595199584961
O	108.743896484375	65.01363372802734	49.10358810424805
O	107.0369644165039	65.35440063476562	47.67205047607422
N	105.7289810180664	63.64567184448242	57.09931945800781
C	105.45529174804688	62.648406982421875	56.0910758972168
C	105.3274154663086	61.34696960449219	56.73542404174805
C	105.58650207519531	61.511940002441406	58.10371017456055
C	105.97037506103516	62.986473083496094	58.325504302978516
C	105.04462432861328	60.11024856567383	55.89024353027344
C	105.5278091430664	60.44053649902344	59.14902114868164
O	105.7259521484375	60.6611328125	60.322227478027344
C	105.07035827636719	58.996009826660156	58.846832275390625
N	106.33240509033203	65.99697875976562	58.85783767700195
C	106.43164825439453	64.99079895019531	59.76615905761719
C	106.89868927001953	65.55911254882812	61.15709686279297
C	106.8830795288086	67.11099243164062	60.873722076416016
C	106.48561096191406	67.2073745727539	59.39453887939453
C	106.19313049316406	64.93164825439453	62.40876770019531
C	108.2552261352539	67.77922058105469	61.13120651245117
C	108.51853942871094	67.6993408203125	62.62773895263672
N	106.10379028320312	67.57976531982422	56.540035247802734
C	106.03751373291016	68.67509460449219	57.41101837158203
C	105.81649017333984	69.90489959716797	56.702919006347656
C	105.83131408691406	69.56132507324219	55.38286209106445
C	105.98189544677734	68.18328094482422	55.26347732543945
C	105.77147674560547	71.24752807617188	57.269378662109375
C	105.71322631835938	70.15513610839844	54.02006530761719
O	105.70826721191406	71.32546997070312	53.6640739440918
C	105.81668090820312	68.93502807617188	52.992340087890625
C	104.53921508789062	69.08409881591797	52.169036865234375
O	103.4444351196289	68.72038269042969	52.573150634765625
O	104.8136978149414	69.32225036621094	50.79090118408203
C	103.6897964477539	69.10032653808594	49.82425308227539
C	107.98611450195312	65.18931579589844	46.5626335144043
C	108.11359405517578	63.74618148803711	46.396690368652344
C	107.25198364257812	62.869754791259766	45.91379165649414
C	105.73342895507812	63.0772590637207	45.829776763916016
C	107.71625518798828	61.38141632080078	45.88558578491211
C	106.86137390136719	60.46737289428711	44.978759765625
C	107.45861053466797	59.097984313964844	44.73767852783203
C	107.66419219970703	58.011226654052734	45.90020751953125
C	109.05940246582031	58.25240707397461	46.502933502197266
C	107.64850616455078	56.61958694458008	45.267940521240234
C	106.3387222290039	56.020263671875	44.77452850341797
C	105.1987533569336	55.886390686035156	45.90757369995117
C	104.00374603271484	54.96390914916992	45.574134826660156
C	104.2244644165039	53.44501876831055	45.728145599365234
C	103.3150634765625	55.42198944091797	44.30486297607422
C	102.78976440429688	56.85285949707031	44.18572998046875
C	101.63014221191406	57.229827880859375	45.15571212768555
C	100.38642120361328	56.30855178833008	45.17583465576172
C	99.58100891113281	56.27758026123047	43.88810729980469
C	99.53860473632812	56.756568908691406	46.40851593017578
H	105.05841064453125	62.217796325683594	54.01996994018555
H	106.32491302490234	62.964378356933594	60.317989349365234
H	106.35356140136719	69.29122924804688	59.496150970458984
H	104.58130645751953	66.38925170898438	51.810794830322266
H	105.50393676757812	63.56336212158203	52.03166961669922
H	103.03507995605469	63.991886138916016	51.43787384033203
H	102.81373596191406	64.87457275390625	52.97956466674805
H	103.27750396728516	63.19236755371094	52.88730239868164
H	107.40875244140625	65.23003387451172	51.80791473388672
H	106.92753601074219	66.86428833007812	51.22589111328125
H	105.48802185058594	65.64556884765625	49.427982330322266
H	106.08466339111328	64.16605377197266	50.13557052612305
H	105.7967529296875	59.35926055908203	55.64857482910156
H	104.75836944580078	60.53230667114258	54.92690658569336
H	104.15530395507812	59.61604690551758	56.28137969970703
H	104.01847076416016	58.989864349365234	58.56120681762695
H	105.19934844970703	58.42579650878906	59.76679229736328
H	105.71505737304688	58.46479034423828	58.146629333496094
H	107.93388366699219	65.2251968383789	61.22754669189453
H	106.07797241210938	67.61353302001953	61.409793853759766
H	105.21006774902344	65.37007141113281	62.58041763305664
H	105.98129272460938	63.86957550048828	62.28534698486328
H	106.77375793457031	65.22837829589844	63.282222747802734
H	108.11042785644531	68.82160186767578	60.84733963012695
H	109.1212387084961	67.524169921875	60.520416259765625
H	108.5770492553711	66.63802337646484	62.86919021606445
H	107.72053527832031	68.11129760742188	63.24544906616211
H	109.49879455566406	68.112548828125	62.8653678894043
H	104.910400390625	71.7601547241211	56.84056091308594
H	106.6563720703125	71.83721160888672	57.029911041259766
H	105.69487762451172	71.22905731201172	58.35652160644531
H	106.67288970947266	69.10374450683594	52.3392333984375
H	102.94120025634766	68.39208984375	50.17938232421875
H	104.13528442382812	68.85957336425781	48.8590202331543
H	103.14537048339844	70.02159118652344	49.61692428588867
H	108.97566986083984	65.62548828125	46.69915008544922
H	107.558837890625	65.52790069580078	45.6187629699707
H	109.15455627441406	63.42778778076172	46.452518463134766
H	105.30654907226562	62.26682662963867	46.420597076416016
H	105.43202209472656	62.95225524902344	44.78976821899414
H	105.40055847167969	64.04725646972656	46.19911193847656
H	107.51464080810547	60.86869812011719	46.82610321044922
H	108.74659729003906	61.241050720214844	45.55879211425781
H	105.92204284667969	60.328269958496094	45.51393127441406
H	106.6080551147461	61.04181671142578	44.08773422241211
H	106.78145599365234	58.63832473754883	44.01776885986328
H	108.46339416503906	59.2105827331543	44.33045196533203
H	106.86225128173828	58.01219940185547	46.638431549072266
H	109.1352767944336	57.72371292114258	47.453102111816406
H	109.84996795654297	58.0620231628418	45.7770881652832
H	109.09965515136719	59.297508239746094	46.80992889404297
H	108.36791229248047	56.474647521972656	44.46199417114258
H	108.05327606201172	56.04283905029297	46.09958267211914
H	106.13235473632812	56.52650833129883	43.83153533935547
H	106.66434478759766	55.033992767333984	44.44384002685547
H	104.8023681640625	56.8895378112793	46.064666748046875
H	105.6904296875	55.577388763427734	46.83000183105469
H	103.33146667480469	55.051292419433594	46.42767333984375
H	103.32820892333984	52.825477600097656	45.75971603393555
H	104.84521484375	53.2271614074707	44.859066009521484
H	104.71797180175781	53.18573760986328	46.664794921875
H	102.46548461914062	54.77052307128906	44.1002082824707
H	104.06094360351562	55.333580017089844	43.51495361328125
H	102.47782897949219	57.029014587402344	43.156280517578125
H	103.50562286376953	57.65913009643555	44.345672607421875
H	102.20867919921875	57.16666793823242	46.07734298706055
H	101.23817443847656	58.21477508544922	44.90205764770508
H	100.6191177368164	55.298614501953125	45.51343536376953
H	99.33098602294922	57.29145431518555	43.57563400268555
H	100.20519256591797	55.90926742553711	43.07395553588867
H	98.66844940185547	55.68587875366211	43.96030807495117
H	99.28239440917969	57.80349349975586	46.2459602355957
H	100.11331176757812	56.70292663574219	47.3331413269043
H	98.65975952148438	56.12624740600586	46.54426193237305
Mg	99.2373046875	59.25652313232422	56.982322692871094
C	97.92793273925781	57.8288459777832	54.10469436645508
C	101.04149627685547	61.50194549560547	55.07449722290039
C	100.70762634277344	60.64620590209961	59.852027893066406
C	97.2364501953125	57.245079040527344	58.851131439208984
N	99.43253326416016	59.62324142456055	54.82803726196289
C	98.81021118164062	58.93058395385742	53.79371643066406
C	99.28618621826172	59.341548919677734	52.34901428222656
C	100.14259338378906	60.603065490722656	52.736167907714844
C	100.34616088867188	60.50810241699219	54.3087158203125
C	101.4510269165039	60.87672805786133	51.96052551269531
C	98.11129760742188	59.65385818481445	51.3383903503418
C	98.53156280517578	60.160919189453125	49.964962005615234
C	97.46083068847656	60.73680877685547	49.08594512939453
O	96.37053680419922	61.0044059753418	49.497676849365234
O	97.94722747802734	61.126312255859375	47.90617370605469
N	100.67616271972656	60.74806594848633	57.42919921875
C	101.2005615234375	61.63164138793945	56.51433563232422
C	101.84458923339844	62.72918701171875	57.15877151489258
C	101.83888244628906	62.52566909790039	58.515281677246094
C	101.05118560791016	61.278465270996094	58.65174865722656
C	102.22760009765625	64.01148986816406	56.47393798828125
C	102.42486572265625	63.328521728515625	59.594139099121094
O	102.32604217529297	62.9648551940918	60.73761749267578
C	103.01388549804688	64.74485778808594	59.41154861450195
N	98.97590637207031	59.06396484375	59.0217399597168
C	99.79102325439453	59.587791442871094	59.96299743652344
C	99.4917221069336	58.98696517944336	61.366546630859375
C	98.24286651611328	58.12458038330078	61.059513092041016
C	98.1663818359375	58.081565856933594	59.57029724121094
C	100.71084594726562	58.1206169128418	61.74568557739258
C	96.9386978149414	58.65779495239258	61.70361328125
C	96.46144104003906	60.06622314453125	61.108280181884766
N	97.81757354736328	57.90485382080078	56.65580749511719
C	97.12226104736328	57.04048156738281	57.42615509033203
C	96.281982421875	56.12420654296875	56.72191619873047
C	96.55642700195312	56.39591598510742	55.44511795043945
C	97.5587158203125	57.41168975830078	55.39747619628906
C	95.31411743164062	55.11018371582031	57.32036209106445
C	96.26823425292969	56.040428161621094	54.13125991821289
O	95.3587646484375	55.284915924072266	53.72401809692383
C	96.99317169189453	57.01581573486328	53.18460464477539
C	97.56804656982422	56.25252151489258	52.0320930480957
O	98.67171478271484	55.72686767578125	51.984466552734375
O	96.80305480957031	56.39094924926758	50.94448471069336
C	97.46499633789062	55.750083923339844	49.800193786621094
C	96.98056030273438	61.877410888671875	47.03887939453125
C	97.57293701171875	62.20460510253906	45.72736358642578
C	97.15509033203125	61.813541412353516	44.52915954589844
C	95.93937683105469	61.01902770996094	44.08149337768555
C	97.88949584960938	62.36637878417969	43.27748107910156
C	97.46064758300781	63.8103141784668	42.958736419677734
C	97.95062255859375	64.90563201904297	43.935508728027344
C	97.69505310058594	66.29019927978516	43.36528778076172
C	98.4748764038086	67.355712890625	44.09242630004883
C	96.16615295410156	66.6453857421875	43.45460510253906
C	95.66981506347656	67.92416381835938	42.73967361450195
C	95.94303894042969	67.68644714355469	41.253021240234375
C	95.45626831054688	68.89220428466797	40.399070739746094
C	93.98357391357422	69.28827667236328	40.715824127197266
C	95.58025360107422	68.63568115234375	38.90145492553711
C	97.02561950683594	68.3531265258789	38.28076171875
C	96.82105255126953	67.35566711425781	37.145530700683594
C	96.60706329345703	65.820068359375	37.581268310546875
C	97.91093444824219	65.1231689453125	37.79533767700195
C	95.87493133544922	64.99125671386719	36.61676788330078
H	101.66947937011719	62.18583679199219	54.49970626831055
H	101.1183090209961	61.10261535644531	60.75508117675781
H	96.63626861572266	56.6423225402832	59.535911560058594
H	99.94471740722656	58.59273910522461	51.908878326416016
H	99.62059783935547	61.504173278808594	52.41425323486328
H	101.36619567871094	60.608642578125	50.90741729736328
H	102.26832580566406	60.30792999267578	52.403892517089844
H	101.64290618896484	61.949676513671875	51.96875
H	97.41779327392578	60.350250244140625	51.80976867675781
H	97.40821075439453	58.851646423339844	51.11429214477539
H	99.08212280273438	59.40654373168945	49.402923583984375
H	99.13361358642578	61.0599479675293	50.09672164916992
H	102.29793548583984	63.98210144042969	55.38660430908203
H	103.30176544189453	64.04287719726562	56.65644073486328
H	101.64234924316406	64.89318084716797	56.73509216308594
H	102.25772094726562	65.52040100097656	59.533382415771484
H	103.4238052368164	65.00203704833984	58.43486404418945
H	103.87013244628906	64.86893463134766	60.07453918457031
H	99.34803771972656	59.76425552368164	62.117061614990234
H	98.34599304199219	57.159156799316406	61.55491256713867
H	100.60458374023438	57.83218765258789	62.791446685791016
H	100.8458251953125	57.26298904418945	61.08663558959961
H	101.64027404785156	58.685516357421875	61.81752014160156
H	97.04643249511719	58.87412643432617	62.7664909362793
H	96.08841705322266	57.97744369506836	61.65605163574219
H	95.8663558959961	60.64677810668945	61.8132209777832
H	95.8992691040039	59.665218353271484	60.26492691040039
H	97.2602767944336	60.72578430175781	60.76927185058594
H	95.8449478149414	54.174171447753906	57.49416732788086
H	94.4826889038086	54.87777328491211	56.654930114746094
H	94.76502227783203	55.3269157409668	58.236671447753906
H	96.25175476074219	57.74504089355469	52.85802459716797
H	97.80440521240234	54.72834014892578	49.970340728759766
H	98.27640533447266	56.36357116699219	49.40858840942383
H	96.76131439208984	55.593109130859375	48.98271560668945
H	96.6944580078125	62.767642974853516	47.5989990234375
H	96.07441711425781	61.303157806396484	46.845916748046875
H	98.44882202148438	62.82642364501953	45.912471771240234
H	95.60322570800781	61.50495910644531	43.165531158447266
H	95.12450408935547	61.132667541503906	44.796443939208984
H	96.17728424072266	59.95956802368164	43.98635482788086
H	97.64576721191406	61.81305694580078	42.370548248291016
H	98.95791625976562	62.27126693725586	43.47121810913086
H	97.9421157836914	63.959014892578125	41.99220657348633
H	96.3785171508789	63.79325485229492	42.82915115356445
H	97.5367660522461	64.83507537841797	44.941410064697266
H	99.0126724243164	64.73406982421875	44.11075210571289
H	97.9585952758789	66.24462890625	42.30861282348633
H	98.7001724243164	68.1904296875	43.42866516113281
H	97.95706939697266	67.80915832519531	44.93762969970703
H	99.47886657714844	67.039794921875	44.37575912475586
H	95.55984497070312	65.86261749267578	42.99879455566406
H	96.07112121582031	66.86343383789062	44.51833724975586
H	94.62055969238281	68.07760620117188	42.99188995361328
H	96.27877807617188	68.79061889648438	42.99756622314453
H	95.46736907958984	66.74783325195312	40.96870040893555
H	96.96946716308594	67.61053466796875	40.894161224365234
H	96.11225891113281	69.74605560302734	40.568519592285156
H	93.60785675048828	70.03173828125	40.012821197509766
H	93.39759063720703	68.37202453613281	40.7879638671875
H	94.07208251953125	69.6437759399414	41.742408752441406
H	95.10880279541016	69.45050048828125	38.35198974609375
H	94.94953155517578	67.78421783447266	38.645904541015625
H	97.80342102050781	68.10743713378906	39.0037956237793
H	97.27265167236328	69.32599639892578	37.85580062866211
H	96.0270004272461	67.68220520019531	36.47398376464844
H	97.70275115966797	67.34697723388672	36.5047492980957
H	96.08163452148438	65.75430297851562	38.53399658203125
H	97.62107849121094	64.25534057617188	38.38774871826172
H	98.49176025390625	64.9068603515625	36.89870071411133
H	98.55254364013672	65.7365951538086	38.42792892456055
H	95.75538635253906	63.988433837890625	37.02682876586914
H	96.44611358642578	64.90269470214844	35.69264602661133
H	94.8506088256836	65.35540771484375	36.537681579589844
