280 

Mg	111.02386474609375	83.44012451171875	56.62091064453125
C	109.69207000732422	84.99073791503906	53.87351989746094
C	112.21444702148438	80.93016815185547	54.41033172607422
C	112.03597259521484	81.61506652832031	59.21329879760742
C	109.68009948730469	85.77122497558594	58.70006561279297
N	111.06378173828125	83.111572265625	54.393001556396484
C	110.44342803955078	83.94418334960938	53.45259094238281
C	110.61148834228516	83.44402313232422	52.04039001464844
C	111.20204162597656	81.97457885742188	52.23332214355469
C	111.57947540283203	81.99234008789062	53.75440979003906
C	110.1601791381836	80.82183837890625	51.89146423339844
C	111.43260955810547	84.28001403808594	51.07936477661133
C	111.32374572753906	83.72650909423828	49.654052734375
C	112.407470703125	84.02407836914062	48.68465042114258
O	113.45763397216797	84.5896224975586	48.88633346557617
O	112.07162475585938	83.42652893066406	47.45582962036133
N	112.04112243652344	81.59051513671875	56.79286575317383
C	112.44929504394531	80.72450256347656	55.794227600097656
C	112.92190551757812	79.47358703613281	56.41865539550781
C	112.82707977294922	79.58756256103516	57.79866027832031
C	112.34489440917969	80.97016906738281	57.999267578125
C	113.41185760498047	78.35406494140625	55.58476257324219
C	113.27935791015625	78.6512451171875	58.94834518432617
O	113.25921630859375	78.9986801147461	60.11905288696289
C	113.7894058227539	77.29686737060547	58.55537796020508
N	110.99252319335938	83.64521026611328	58.655372619628906
C	111.50906372070312	82.82931518554688	59.48646926879883
C	111.29914855957031	83.25927734375	60.98197555541992
C	110.51395416259766	84.65630340576172	60.798194885253906
C	110.37628936767578	84.73884582519531	59.29855728149414
C	110.60104370117188	82.24934387207031	61.89592361450195
C	111.23436737060547	85.9207992553711	61.44708251953125
C	111.55884552001953	85.87947845458984	62.96028137207031
N	109.80416107177734	84.9861831665039	56.39509582519531
C	109.33463287353516	85.89076232910156	57.334293365478516
C	108.46015167236328	86.8370361328125	56.65043640136719
C	108.5799560546875	86.52014923095703	55.28314971923828
C	109.43748474121094	85.43522644042969	55.19436264038086
C	107.6820297241211	87.93502044677734	57.332881927490234
C	108.11622619628906	86.89677429199219	54.013973236083984
O	107.29178619384766	87.74833679199219	53.67033004760742
C	108.94883728027344	86.02470397949219	53.046993255615234
C	107.91141510009766	85.4463882446289	52.14530563354492
O	106.85955047607422	84.94139862060547	52.55982971191406
O	108.25421142578125	85.64696502685547	50.88990783691406
C	107.31944274902344	84.90996551513672	49.987125396728516
C	112.95368957519531	83.6811752319336	46.3013801574707
C	114.19524383544922	82.8367691040039	46.467994689941406
C	114.48963928222656	81.65778350830078	45.85818862915039
C	113.65069580078125	81.00825500488281	44.709564208984375
C	115.79318237304688	81.03881072998047	46.12529373168945
C	116.79524230957031	81.15618896484375	45.014625549316406
C	118.25927734375	80.78185272216797	45.25867462158203
C	118.57947540283203	79.30504608154297	45.442596435546875
C	120.04058837890625	79.051025390625	45.90287780761719
C	118.27263641357422	78.3821029663086	44.30265426635742
C	116.84793090820312	77.81558227539062	44.225101470947266
C	116.75820922851562	76.43075561523438	44.94343566894531
C	115.65179443359375	75.39810180664062	44.43844223022461
C	116.24398040771484	74.67987823486328	43.213958740234375
C	114.21942901611328	75.94408416748047	44.350746154785156
C	113.19171905517578	74.98957824707031	43.642269134521484
C	112.84529876708984	73.77955627441406	44.51785659790039
C	111.67931365966797	73.03263854980469	43.803077697753906
C	110.30229187011719	73.17146301269531	44.556968688964844
C	112.04621887207031	71.5787582397461	43.619483947753906
H	112.51484680175781	80.15209197998047	53.705467224121094
H	112.2788314819336	81.02660369873047	60.10053634643555
H	109.40474700927734	86.55441284179688	59.40948486328125
H	109.5988540649414	83.52889251708984	51.646095275878906
H	112.04074096679688	81.70540618896484	51.59126281738281
H	109.855224609375	81.01874542236328	50.86368942260742
H	109.35809326171875	80.84413146972656	52.629207611083984
H	110.69282531738281	79.8807144165039	52.02810287475586
H	112.4644546508789	84.2359619140625	51.4278564453125
H	111.16297912597656	85.33329010009766	51.001888275146484
H	110.38868713378906	84.08751678466797	49.225738525390625
H	111.1558609008789	82.65048217773438	49.608646392822266
H	112.70355987548828	77.57583618164062	55.30052947998047
H	114.26036071777344	77.92204284667969	56.115318298339844
H	113.84304809570312	78.89061737060547	54.7396125793457
H	113.18656921386719	76.88379669189453	57.746639251708984
H	113.57606506347656	76.61866760253906	59.381595611572266
H	114.87458038330078	77.2914810180664	58.4531364440918
H	112.22151947021484	83.55868530273438	61.47968292236328
H	109.55964660644531	84.64164733886719	61.324676513671875
H	110.21941375732422	82.72274017333984	62.80055618286133
H	109.75411224365234	81.784912109375	61.390838623046875
H	111.2380142211914	81.4033203125	62.15402603149414
H	110.57290649414062	86.78714752197266	61.446044921875
H	112.06513977050781	86.18621063232422	60.79326629638672
H	111.89461517333984	84.92984008789062	63.37684631347656
H	110.65283966064453	86.23002624511719	63.45460891723633
H	112.3985366821289	86.56688690185547	63.06272506713867
H	106.70552062988281	87.54219055175781	57.61616516113281
H	107.54580688476562	88.77412414550781	56.65066146850586
H	108.36201477050781	88.29353332519531	58.10564422607422
H	109.56599426269531	86.73461151123047	52.496299743652344
H	106.39363098144531	85.48485565185547	50.0087776184082
H	107.23685455322266	83.82786560058594	50.08891677856445
H	107.69497680664062	85.01664733886719	48.96944046020508
H	113.08940887451172	84.75226593017578	46.151466369628906
H	112.27337646484375	83.39167785644531	45.500465393066406
H	114.96612548828125	83.36460876464844	47.02945327758789
H	113.99669647216797	81.53054809570312	43.817604064941406
H	112.60118103027344	81.27037811279297	44.84346008300781
H	113.86734771728516	79.9425277709961	44.78296661376953
H	115.5384750366211	80.00232696533203	46.34644317626953
H	116.2706069946289	81.50199890136719	46.98878860473633
H	116.4979476928711	80.62112426757812	44.11272048950195
H	116.76956939697266	82.17709350585938	44.63360595703125
H	118.73422241210938	81.11835479736328	44.33711624145508
H	118.64448547363281	81.35316467285156	46.103248596191406
H	118.11974334716797	78.96205139160156	46.36947250366211
H	120.18402099609375	78.0186538696289	46.22185134887695
H	120.72895050048828	79.23213195800781	45.07736587524414
H	120.3076171875	79.69210052490234	46.74300765991211
H	118.43758392333984	78.91848754882812	43.368221282958984
H	118.95858764648438	77.55736541748047	44.10934066772461
H	116.05912017822266	78.49040222167969	44.55751037597656
H	116.67708587646484	77.63327026367188	43.16412353515625
H	116.46613311767578	76.5400390625	45.98786926269531
H	117.67953491210938	75.84896087646484	44.91572952270508
H	115.66168975830078	74.61502838134766	45.19660568237305
H	115.64326477050781	73.77445983886719	43.12763214111328
H	116.25239562988281	75.3641357421875	42.365535736083984
H	117.26158905029297	74.29431915283203	43.27646255493164
H	114.22476959228516	76.89086151123047	43.810672760009766
H	113.92277526855469	76.11754608154297	45.38516616821289
H	113.6922836303711	74.49922180175781	42.807350158691406
H	112.27161407470703	75.44670867919922	43.27820587158203
H	113.71827697753906	73.12722778320312	44.539306640625
H	112.57005310058594	74.1729507446289	45.49641418457031
H	111.56798553466797	73.45673370361328	42.805152893066406
H	110.4293212890625	72.90340423583984	45.60582733154297
H	109.9833755493164	74.212890625	44.514442443847656
H	109.52747344970703	72.59043884277344	44.05681228637695
H	111.34612274169922	71.07644653320312	42.95193099975586
H	111.96290588378906	71.134521484375	44.611358642578125
H	113.07377624511719	71.52082061767578	43.260498046875
Mg	109.45372772216797	74.702880859375	56.62117385864258
C	109.18963623046875	72.62479400634766	53.91630172729492
C	109.29742431640625	77.42327117919922	54.628753662109375
C	109.20899200439453	76.6849594116211	59.40262222290039
C	109.61295318603516	71.90034484863281	58.74749755859375
N	109.5186538696289	74.96849822998047	54.51362228393555
C	109.28286743164062	73.96546173095703	53.543304443359375
C	109.16447448730469	74.53355407714844	52.0692138671875
C	109.47837829589844	76.05168151855469	52.422645568847656
C	109.376220703125	76.21412658691406	53.92471694946289
C	110.88947296142578	76.38500213623047	51.87385177612305
C	107.76141357421875	74.27776336669922	51.36177062988281
C	107.7193374633789	74.63978576660156	49.811588287353516
C	106.53014373779297	74.50532531738281	48.97719955444336
O	105.42373657226562	74.8104248046875	49.396358489990234
O	106.95375061035156	74.47386169433594	47.68886184692383
N	109.26400756835938	76.75629425048828	56.97464370727539
C	109.23827362060547	77.72643280029297	55.99654769897461
C	109.08087921142578	79.04423522949219	56.63399124145508
C	108.9892578125	78.83381652832031	58.02923583984375
C	109.15299224853516	77.39690399169922	58.20482635498047
C	109.02075958251953	80.26536560058594	55.825313568115234
C	108.71047973632812	79.77922058105469	59.06742858886719
O	108.77704620361328	79.49751281738281	60.258384704589844
C	108.16825103759766	81.13368225097656	58.828067779541016
N	109.35459899902344	74.34000396728516	58.79789352416992
C	109.28208923339844	75.32159423828125	59.69803237915039
C	109.47601318359375	74.78287506103516	61.113468170166016
C	109.31037139892578	73.29240417480469	60.95748519897461
C	109.39498138427734	73.13699340820312	59.42144012451172
C	110.8717269897461	75.08431243896484	61.73589324951172
C	107.98358154296875	72.661376953125	61.4338493347168
C	106.68705749511719	73.06594848632812	60.70557403564453
N	109.48218536376953	72.70030212402344	56.41952896118164
C	109.54266357421875	71.66627502441406	57.373809814453125
C	109.63932037353516	70.43228149414062	56.63606643676758
C	109.31761932373047	70.80101013183594	55.31498336791992
C	109.37194061279297	72.11127471923828	55.18272399902344
C	109.82100677490234	69.09542846679688	57.20320129394531
C	109.09203338623047	70.22868347167969	54.01049041748047
O	108.90113067626953	69.09379577636719	53.660736083984375
C	108.96554565429688	71.42787170410156	53.0308723449707
C	110.02984619140625	71.31306457519531	51.96283721923828
O	111.21185302734375	71.23677062988281	52.192901611328125
O	109.4478988647461	71.41600799560547	50.73329544067383
C	110.45935821533203	71.21057891845703	49.67307662963867
C	105.87327575683594	74.68989562988281	46.758113861083984
C	106.46854400634766	75.22569274902344	45.486141204833984
C	106.20864868164062	74.94606018066406	44.1866455078125
C	105.20402526855469	73.92880249023438	43.81740951538086
C	107.02088928222656	75.443359375	42.99882507324219
C	106.3069076538086	76.73531341552734	42.40437316894531
C	106.39632415771484	77.95460510253906	43.37303924560547
C	105.3750228881836	79.0562515258789	43.0638542175293
C	105.88677978515625	80.45882415771484	43.420448303222656
C	103.9349365234375	78.83927154541016	43.60007858276367
C	102.6706771850586	79.19920349121094	42.72731399536133
C	102.73596954345703	78.61514282226562	41.28514862060547
C	101.49231719970703	78.94598388671875	40.361000061035156
C	100.40396881103516	78.04792022705078	40.889339447021484
C	101.75067901611328	78.6933822631836	38.82718276977539
C	102.66509246826172	79.83414459228516	38.105735778808594
C	102.89046478271484	79.59204864501953	36.56532669067383
C	103.59896850585938	78.29136657714844	36.23776626586914
C	104.88116455078125	78.01852416992188	37.00597381591797
C	103.84334564208984	78.25096130371094	34.71747589111328
H	109.18120574951172	78.28792572021484	53.97200012207031
H	109.32402801513672	77.33792877197266	60.27030563354492
H	109.68367767333984	71.0128173828125	59.379764556884766
H	109.9659423828125	74.11679077148438	51.45925521850586
H	108.71001434326172	76.69771575927734	51.997982025146484
H	111.17980194091797	77.39522552490234	52.16239929199219
H	110.88272094726562	76.45330047607422	50.786014556884766
H	111.67985534667969	75.7938232421875	52.33634567260742
H	106.99543762207031	74.92230224609375	51.793006896972656
H	107.48981475830078	73.22895812988281	51.4815559387207
H	108.57196807861328	74.16557312011719	49.32552719116211
H	108.03375244140625	75.68341064453125	49.80208969116211
H	109.59041595458984	80.93478393554688	56.46988296508789
H	108.0098648071289	80.64663696289062	55.681034088134766
H	109.49162292480469	80.08216094970703	54.85948944091797
H	107.51751708984375	81.16696166992188	57.954254150390625
H	108.9796371459961	81.83638763427734	58.63836669921875
H	107.54515838623047	81.32731628417969	59.70119857788086
H	108.73465728759766	75.16280364990234	61.816402435302734
H	110.1448745727539	72.7398681640625	61.38922119140625
H	111.04267883300781	74.83358764648438	62.782798767089844
H	111.6502685546875	74.57504272460938	61.16790771484375
H	111.1123046875	76.1354751586914	61.576904296875
H	107.7952651977539	73.02030944824219	62.445682525634766
H	108.03424072265625	71.57272338867188	61.452842712402344
H	106.80632781982422	72.94593048095703	59.62879180908203
H	106.42826080322266	74.05537414550781	61.08263397216797
H	105.8311767578125	72.46601867675781	61.01485824584961
H	110.45052337646484	68.98900604248047	58.08664321899414
H	110.32810974121094	68.52156829833984	56.42757034301758
H	108.92091369628906	68.51055145263672	57.39265060424805
H	107.94495391845703	71.28998565673828	52.67382049560547
H	111.32846069335938	71.86795043945312	49.697540283203125
H	109.95506286621094	71.31504821777344	48.71239471435547
H	110.78546142578125	70.18204498291016	49.82756042480469
H	105.06957244873047	75.32749938964844	47.12635040283203
H	105.38284301757812	73.72862243652344	46.604774475097656
H	107.29457092285156	75.9205551147461	45.63766098022461
H	104.50804901123047	73.70051574707031	44.624629974365234
H	105.6893310546875	73.00298309326172	43.508487701416016
H	104.64509582519531	74.2797622680664	42.94992446899414
H	107.08309173583984	74.6150131225586	42.293087005615234
H	107.99622344970703	75.85948944091797	43.25114822387695
H	106.7957992553711	76.82530212402344	41.434322357177734
H	105.27377319335938	76.51507568359375	42.1356201171875
H	106.17802429199219	77.71424865722656	44.4135627746582
H	107.43424224853516	78.27920532226562	43.299251556396484
H	105.31917572021484	79.10216522216797	41.97625732421875
H	106.40495300292969	80.49254608154297	44.378814697265625
H	106.58873748779297	80.72299194335938	42.6295051574707
H	105.08296966552734	81.1934585571289	43.37245559692383
H	103.88369750976562	77.76545715332031	43.780094146728516
H	103.90435028076172	79.370361328125	44.55144500732422
H	101.8165283203125	78.90890502929688	43.339080810546875
H	102.5380859375	80.26863098144531	42.563472747802734
H	103.04458618164062	77.57020568847656	41.316410064697266
H	103.46749114990234	79.26525115966797	40.80522537231445
H	101.15487670898438	79.9589614868164	40.580345153808594
H	100.21903228759766	78.4371566772461	41.890533447265625
H	99.53197479248047	78.12516021728516	40.23990249633789
H	100.74502563476562	77.01264953613281	40.88644027709961
H	100.79167175292969	78.7021484375	38.30918884277344
H	102.1586685180664	77.70771789550781	38.603355407714844
H	103.62445831298828	79.8812026977539	38.62101745605469
H	102.28179168701172	80.84925842285156	38.20927429199219
H	101.9161605834961	79.76258850097656	36.1073112487793
H	103.45802307128906	80.45921325683594	36.227699279785156
H	102.73660278320312	77.6669921875	36.47138977050781
H	104.66636657714844	77.95638275146484	38.07279586791992
H	105.363037109375	77.0707778930664	36.76581573486328
H	105.54612731933594	78.8298568725586	36.70992660522461
H	104.85157012939453	78.52509307861328	34.406944274902344
H	103.10623931884766	78.87196350097656	34.20841598510742
H	103.78819274902344	77.1878433227539	34.483306884765625
