280 

Mg	69.0207748413086	103.70296478271484	56.449527740478516
C	68.59748840332031	101.7994613647461	53.65175247192383
C	70.49119567871094	106.15019989013672	54.55926513671875
C	69.36714935302734	105.54933166503906	59.25763702392578
C	67.61651611328125	101.0947494506836	58.290706634521484
N	69.40734100341797	103.99592590332031	54.4371223449707
C	69.21929931640625	103.06703186035156	53.431705474853516
C	69.65701293945312	103.54415893554688	52.066898345947266
C	70.29768371582031	104.94012451171875	52.36897277832031
C	70.02438354492188	105.08331298828125	53.851566314697266
C	71.77937316894531	105.0972671508789	51.920875549316406
C	68.54180908203125	103.60810852050781	50.887447357177734
C	69.07875061035156	104.12654113769531	49.55583953857422
C	67.99758911132812	104.50494384765625	48.50333786010742
O	66.85626983642578	104.85980987548828	48.733158111572266
O	68.51235961914062	104.52552795410156	47.24239730834961
N	69.82046508789062	105.50569152832031	56.836456298828125
C	70.47722625732422	106.40471649169922	55.941585540771484
C	70.9410171508789	107.4711685180664	56.61913299560547
C	70.72859954833984	107.29365539550781	58.01499938964844
C	69.88976287841797	106.12626647949219	58.04005432128906
C	71.75396728515625	108.5677261352539	56.01527786254883
C	71.30577850341797	108.05632781982422	59.175716400146484
O	70.8470458984375	107.9454345703125	60.32798385620117
C	72.47294616699219	109.0226058959961	59.04350280761719
N	68.53759002685547	103.40835571289062	58.51112747192383
C	68.80606079101562	104.28795623779297	59.47575378417969
C	68.52335357666016	103.74522399902344	60.878700256347656
C	67.99609375	102.3023910522461	60.553646087646484
C	67.92317199707031	102.26956176757812	59.0362548828125
C	69.72664642333984	103.79229736328125	61.83376693725586
C	66.75064086914062	102.02615356445312	61.38151168823242
C	66.87258911132812	101.78192138671875	62.8282585144043
N	68.29480743408203	101.842041015625	56.08951950073242
C	67.88189697265625	100.81697082519531	56.926822662353516
C	67.53348541259766	99.57305145263672	56.20507049560547
C	67.86876678466797	99.89777374267578	54.88447189331055
C	68.29413604736328	101.26105499267578	54.908084869384766
C	67.16596221923828	98.20111083984375	56.852394104003906
C	67.921875	99.40861511230469	53.474544525146484
O	67.59522247314453	98.28904724121094	53.13777542114258
C	68.30022430419922	100.66983032226562	52.6551399230957
C	69.44256591796875	100.3132553100586	51.75826644897461
O	70.54856872558594	100.15914154052734	52.181968688964844
O	69.0342788696289	100.22644805908203	50.46295928955078
C	70.07878112792969	99.9836654663086	49.523094177246094
C	67.62798309326172	105.1142578125	46.209999084472656
C	67.72064208984375	106.59523010253906	46.26381301879883
C	68.810302734375	107.35760498046875	45.92131042480469
C	70.16590881347656	106.78958892822266	45.353851318359375
C	68.65512084960938	108.9271240234375	45.96748733520508
C	68.76201629638672	109.5364761352539	44.57889175415039
C	68.75481414794922	111.03205871582031	44.42668533325195
C	69.80850982666016	111.70979309082031	45.35804748535156
C	69.07801055908203	112.40327453613281	46.54780960083008
C	70.5494155883789	112.79830169677734	44.57574462890625
C	71.3365478515625	112.47700500488281	43.372989654541016
C	72.47618103027344	111.48292541503906	43.58160400390625
C	73.65995788574219	111.90853118896484	44.56199264526367
C	74.30779266357422	113.22701263427734	43.95328140258789
C	74.66093444824219	110.74093627929688	44.824127197265625
C	75.6064453125	110.49564361572266	43.70082473754883
C	76.55682373046875	109.22476959228516	43.7311897277832
C	77.54174041748047	109.16592407226562	44.90157699584961
C	78.57952880859375	110.35679626464844	44.858089447021484
C	78.30013275146484	107.84203338623047	44.98302459716797
H	70.90258026123047	106.94693756103516	53.936038970947266
H	69.29615783691406	106.11407470703125	60.189571380615234
H	67.1788101196289	100.2939682006836	58.890380859375
H	70.57006072998047	103.04325866699219	51.745094299316406
H	69.7506332397461	105.7872314453125	51.95514678955078
H	72.3576889038086	104.52508544921875	52.64631652832031
H	71.95123291015625	106.17179107666016	51.983985900878906
H	71.90066528320312	104.77976989746094	50.88521957397461
H	67.66449737548828	104.19857025146484	51.1515998840332
H	68.21586608886719	102.5911636352539	50.669151306152344
H	69.80561828613281	103.43750762939453	49.125709533691406
H	69.57884216308594	105.0907974243164	49.646400451660156
H	72.80146789550781	108.26707458496094	56.03652572631836
H	71.53443908691406	109.45115661621094	56.61479568481445
H	71.25719451904297	108.64730834960938	55.0483283996582
H	73.0786361694336	108.9030532836914	58.14520263671875
H	73.1314926147461	108.82926940917969	59.89028549194336
H	72.04882049560547	110.0241928100586	59.11449432373047
H	67.62627410888672	104.2867202758789	61.17892837524414
H	68.67578125	101.53083801269531	60.91535568237305
H	69.45677947998047	103.16111755371094	62.680458068847656
H	70.67652893066406	103.5078353881836	61.3811149597168
H	69.71650695800781	104.81259155273438	62.2171745300293
H	66.35173034667969	101.11871337890625	60.92816162109375
H	66.05033874511719	102.85953521728516	61.32538604736328
H	65.87553405761719	101.66719055175781	63.253482818603516
H	67.46575927734375	102.52112579345703	63.36662292480469
H	67.30156707763672	100.78910827636719	62.96392059326172
H	67.82140350341797	98.0819091796875	57.71511459350586
H	67.36390686035156	97.38320922851562	56.15959930419922
H	66.12112426757812	98.33747100830078	57.13135528564453
H	67.46757507324219	100.97151947021484	52.01969528198242
H	69.55157470703125	99.8182601928711	48.58352279663086
H	70.45915985107422	99.0158920288086	49.8499641418457
H	70.75753021240234	100.83590698242188	49.55598449707031
H	66.63818359375	104.66189575195312	46.27128982543945
H	68.08641052246094	104.808837890625	45.269432067871094
H	66.91234588623047	107.07340240478516	46.81708908081055
H	70.406005859375	105.73677825927734	45.502357482910156
H	70.9616928100586	107.40203094482422	45.77785110473633
H	70.15081787109375	107.01930236816406	44.2884407043457
H	69.38935089111328	109.39373016357422	46.62420654296875
H	67.65576171875	109.20108032226562	46.30561447143555
H	69.6652603149414	109.15764617919922	44.100616455078125
H	67.90296936035156	109.1336441040039	44.0423583984375
H	69.05178833007812	111.21231842041016	43.393531799316406
H	67.73831176757812	111.42256927490234	44.475093841552734
H	70.58455657958984	111.03977966308594	45.72809600830078
H	68.1787338256836	112.97843170166016	46.327301025390625
H	68.82305908203125	111.71963500976562	47.357574462890625
H	69.67874145507812	113.11698150634766	47.111610412597656
H	69.80656433105469	113.55156707763672	44.313331604003906
H	71.11412811279297	113.43927001953125	45.25276565551758
H	70.7979736328125	111.94725036621094	42.58723831176758
H	71.72357177734375	113.44583129882812	43.057273864746094
H	72.93013763427734	111.22528839111328	42.62471008300781
H	71.99231719970703	110.55103302001953	43.87409973144531
H	73.28400421142578	112.04910278320312	45.57540512084961
H	74.37901306152344	113.0909652709961	42.8741455078125
H	73.63729095458984	114.04304504394531	44.22276306152344
H	75.28959655761719	113.39202117919922	44.39705276489258
H	74.14628601074219	109.8128433227539	45.07284164428711
H	75.20735168457031	111.02592468261719	45.72318649291992
H	76.29084014892578	111.33377838134766	43.56956100463867
H	74.96122741699219	110.4580078125	42.82311248779297
H	75.9127197265625	108.34574890136719	43.75473403930664
H	77.0356674194336	109.19488525390625	42.7524528503418
H	76.96953582763672	109.38717651367188	45.80253982543945
H	79.3366928100586	110.27286529541016	45.63766860961914
H	79.12959289550781	110.35371398925781	43.91706466674805
H	78.07427978515625	111.31664276123047	44.96548080444336
H	79.01910400390625	107.97442626953125	45.79151153564453
H	78.80440521240234	107.72946166992188	44.02326202392578
H	77.59943389892578	107.03369903564453	45.19210433959961
Mg	77.1828384399414	106.61582946777344	56.430686950683594
C	78.95318603515625	107.98434448242188	53.83426284790039
C	75.06224822998047	105.02937316894531	54.294456481933594
C	75.90008544921875	105.07357788085938	59.11510467529297
C	79.16861724853516	108.54340362548828	58.680328369140625
N	77.01847076416016	106.56819152832031	54.40031051635742
C	77.82330322265625	107.2288818359375	53.46171951293945
C	77.46997833251953	106.81155395507812	52.02690505981445
C	76.09120178222656	106.12105560302734	52.21552276611328
C	76.04691314697266	105.86665344238281	53.725257873535156
C	74.92147827148438	106.9209213256836	51.62664031982422
C	78.4418716430664	105.97666931152344	51.154991149902344
C	78.18501281738281	105.94467163085938	49.694190979003906
C	78.90042877197266	104.89021301269531	48.79062271118164
O	79.73583984375	104.0535659790039	49.13079071044922
O	78.27445220947266	104.9648208618164	47.589359283447266
N	75.6960220336914	105.1748046875	56.658382415771484
C	74.99299621582031	104.67415618896484	55.62189483642578
C	74.078369140625	103.64678955078125	56.259952545166016
C	74.22102355957031	103.76663970947266	57.68413162231445
C	75.329833984375	104.66514587402344	57.88394546508789
C	73.13470458984375	102.87110137939453	55.37982940673828
C	73.54131317138672	103.07122802734375	58.76731872558594
O	73.5805435180664	103.28211975097656	59.966339111328125
C	72.51675415039062	102.09068298339844	58.32829284667969
N	77.35810089111328	106.9437484741211	58.657814025878906
C	76.71070861816406	106.13717651367188	59.55938720703125
C	77.08839416503906	106.42081451416016	61.0395622253418
C	78.21709442138672	107.55253601074219	60.85013961791992
C	78.22724914550781	107.75254821777344	59.29472351074219
C	75.86284637451172	106.69258117675781	61.890655517578125
C	79.58465576171875	107.24190521240234	61.485328674316406
C	80.38951110839844	106.12742614746094	60.83804702758789
N	78.56245422363281	108.00025939941406	56.315093994140625
C	79.39947509765625	108.6229248046875	57.24210739135742
C	80.42823791503906	109.41699981689453	56.64801025390625
C	80.33715057373047	109.1336441040039	55.259586334228516
C	79.21212005615234	108.2919692993164	55.181522369384766
C	81.57624053955078	110.0960693359375	57.33005142211914
C	80.91004943847656	109.50564575195312	54.00383758544922
O	81.79682922363281	110.26799011230469	53.749507904052734
C	80.04563903808594	108.6522216796875	53.01701354980469
C	79.53390502929688	109.66419982910156	51.9777717590332
O	78.41995239257812	110.22045135498047	51.899375915527344
O	80.49514770507812	109.70580291748047	51.01204299926758
C	80.10517120361328	110.2772445678711	49.695491790771484
C	78.5575180053711	103.89733123779297	46.67318344116211
C	77.9377670288086	104.25540161132812	45.369842529296875
C	78.5400390625	104.5918197631836	44.18552017211914
C	80.05890655517578	104.70801544189453	44.002437591552734
C	77.75054168701172	104.77774810791016	42.89773941040039
C	77.25077819824219	103.59305572509766	42.157379150390625
C	76.1740951538086	102.61368560791016	42.784915924072266
C	76.1207275390625	101.14836883544922	42.31847381591797
C	74.8557357788086	100.5715103149414	43.11671829223633
C	77.4261703491211	100.40147399902344	42.722164154052734
C	77.5076904296875	98.8985366821289	42.55172348022461
C	77.76428985595703	98.53692626953125	41.11273193359375
C	77.60758972167969	97.01217651367188	40.72792434692383
C	78.64928436279297	96.16152954101562	41.40729522705078
C	77.55586242675781	96.73800659179688	39.205108642578125
C	76.20672607421875	96.92558288574219	38.62114715576172
C	76.22511291503906	96.65982055664062	37.11056900024414
C	76.78197479248047	97.7180404663086	36.09082794189453
C	75.88098907470703	98.98088073730469	36.18084716796875
C	76.81368255615234	97.0687026977539	34.673248291015625
H	74.40084075927734	104.67696380615234	53.500221252441406
H	75.66527557373047	104.44855499267578	59.97920608520508
H	79.84133911132812	108.96702575683594	59.42897415161133
H	77.29917907714844	107.77794647216797	51.55255126953125
H	76.1119384765625	105.133544921875	51.75453567504883
H	74.6875991821289	106.66787719726562	50.592533111572266
H	75.171875	107.9677505493164	51.798519134521484
H	73.99960327148438	106.74876403808594	52.18217468261719
H	78.46309661865234	104.91497802734375	51.4008903503418
H	79.45513916015625	106.31584167480469	51.37028121948242
H	78.33770751953125	106.90980529785156	49.21119689941406
H	77.14396667480469	105.65765380859375	49.546051025390625
H	73.2712173461914	101.79366302490234	55.472503662109375
H	73.41232299804688	103.107421875	54.35261154174805
H	72.12983703613281	103.18508911132812	55.662254333496094
H	71.84286499023438	102.3873291015625	57.524574279785156
H	71.93325805664062	101.69136810302734	59.15786361694336
H	73.10198211669922	101.25035095214844	57.95484924316406
H	77.65438842773438	105.5881118774414	61.45713806152344
H	77.76606750488281	108.45660400390625	61.25922775268555
H	75.24044036865234	107.55744934082031	61.661067962646484
H	75.25958251953125	105.78511047363281	61.86471939086914
H	76.22657775878906	106.77659606933594	62.91473388671875
H	79.33428192138672	106.92498779296875	62.497745513916016
H	80.1180191040039	108.1865005493164	61.591957092285156
H	80.71162414550781	105.37616729736328	61.55912399291992
H	81.22760009765625	106.44088745117188	60.21558380126953
H	79.703857421875	105.61263275146484	60.16501998901367
H	82.21508026123047	110.60292053222656	56.60679626464844
H	82.09503936767578	109.27911376953125	57.83155822753906
H	81.08232116699219	110.7247314453125	58.07094192504883
H	80.74725341796875	107.9112319946289	52.63389205932617
H	79.47100830078125	109.58399963378906	49.14291000366211
H	80.9750747680664	110.57011413574219	49.10762405395508
H	79.45480346679688	111.12903594970703	49.89439392089844
H	78.24884796142578	102.88742065429688	46.94320297241211
H	79.64628601074219	103.88674926757812	46.62234878540039
H	76.85604858398438	104.34747314453125	45.272335052490234
H	80.4684829711914	103.72492980957031	43.770263671875
H	80.5616683959961	105.2297592163086	44.8167610168457
H	80.35590362548828	105.37907409667969	43.19648361206055
H	78.31938934326172	105.31177520751953	42.13661193847656
H	76.95557403564453	105.42700958251953	43.26459884643555
H	76.75660705566406	104.056396484375	41.30344772338867
H	78.19205474853516	103.14056396484375	41.845359802246094
H	76.51812744140625	102.62391662597656	43.81914520263672
H	75.23949432373047	103.14823913574219	42.61497116088867
H	76.00987243652344	101.0115966796875	41.2427864074707
H	74.0010757446289	101.20597076416016	42.881961822509766
H	74.50016784667969	99.58969116210938	42.804141998291016
H	74.92724609375	100.5116195678711	44.20272445678711
H	78.35386657714844	100.80451202392578	42.315887451171875
H	77.547119140625	100.52967834472656	43.797813415527344
H	78.23836517333984	98.50104522705078	43.25615310668945
H	76.54288482666016	98.44280242919922	42.774349212646484
H	78.75897979736328	98.77749633789062	40.73746109008789
H	77.0692138671875	99.10384368896484	40.49338912963867
H	76.64875793457031	96.73773956298828	41.167720794677734
H	79.5826644897461	96.37535095214844	40.886531829833984
H	78.77691650390625	96.48230743408203	42.44118118286133
H	78.52369689941406	95.0819320678711	41.32501220703125
H	77.9355697631836	95.74082946777344	38.982452392578125
H	78.21875	97.47041320800781	38.74440002441406
H	75.99320983886719	97.94598388671875	38.939395904541016
H	75.51518249511719	96.26151275634766	39.1396598815918
H	76.5928726196289	95.69024658203125	36.774742126464844
H	75.17594146728516	96.7099838256836	36.81932067871094
H	77.77632904052734	98.10123443603516	36.319976806640625
H	76.10503387451172	99.65705108642578	35.35580062866211
H	74.87196350097656	98.59886169433594	36.02584457397461
H	75.98555755615234	99.49671936035156	37.135353088378906
H	77.08924865722656	97.63542175292969	33.78387451171875
H	75.86730194091797	96.57090759277344	34.46189498901367
H	77.56866455078125	96.28276824951172	34.693641662597656
