140 

Mg	81.54755401611328	55.360050201416016	56.833648681640625
C	79.40763854980469	55.041236877441406	54.221595764160156
C	84.1941909790039	55.95021057128906	54.53028106689453
C	83.77349090576172	55.43275833129883	59.42695999145508
C	78.95606231689453	54.696922302246094	59.07379150390625
N	81.8155288696289	55.44255828857422	54.71192932128906
C	80.77775573730469	55.31086730957031	53.788204193115234
C	81.24169921875	55.49703598022461	52.34388732910156
C	82.73578643798828	55.664573669433594	52.52475357055664
C	82.95098876953125	55.79997634887695	53.996551513671875
C	83.59276580810547	54.46454620361328	51.89466857910156
C	80.53536987304688	56.620445251464844	51.56110763549805
C	80.89179229736328	56.50202178955078	50.08709716796875
C	80.5184097290039	57.61676788330078	49.14253234863281
O	79.99337005615234	58.69336700439453	49.36342239379883
O	81.04707336425781	57.2865104675293	47.935428619384766
N	83.54106903076172	55.81169509887695	57.03733825683594
C	84.49700927734375	55.987281799316406	55.95344924926758
C	85.83560943603516	56.2388801574707	56.574039459228516
C	85.73274230957031	56.05048751831055	57.963905334472656
C	84.32542419433594	55.79536437988281	58.18880081176758
C	87.07965850830078	56.44968032836914	55.65568923950195
C	86.82524871826172	56.073326110839844	59.06537628173828
O	86.56367492675781	55.75767517089844	60.24619674682617
C	88.26683044433594	56.414337158203125	58.76888656616211
N	81.36285400390625	55.24053955078125	58.95431137084961
C	82.4366683959961	55.30012130737305	59.74250793457031
C	82.04295349121094	55.0916633605957	61.25638961791992
C	80.47764587402344	55.223472595214844	61.183204650878906
C	80.21155548095703	55.055137634277344	59.696510314941406
C	82.53559112548828	53.76298904418945	61.98965072631836
C	79.83332061767578	56.51700973510742	61.70722961425781
C	80.41695404052734	57.791908264160156	60.96128845214844
N	79.61463928222656	54.871070861816406	56.73359298706055
C	78.66497039794922	54.6323356628418	57.679344177246094
C	77.39085388183594	54.36558532714844	57.005672454833984
C	77.64781951904297	54.53191375732422	55.695518493652344
C	78.99493408203125	54.86854553222656	55.58618927001953
C	76.0623779296875	53.991966247558594	57.66219711303711
C	77.0694580078125	54.341941833496094	54.341007232666016
O	75.95050048828125	53.968711853027344	53.98643112182617
C	78.20967864990234	54.82080078125	53.347900390625
C	78.2605972290039	53.647422790527344	52.3519287109375
O	78.19931030273438	52.44580078125	52.559852600097656
O	78.27826690673828	54.16164779663086	51.04802703857422
C	78.16627502441406	53.192325592041016	49.94396209716797
C	80.96878051757812	58.41323471069336	46.9534912109375
C	81.58622741699219	57.97264862060547	45.661224365234375
C	81.10107421875	57.91585922241211	44.42234802246094
C	79.63202667236328	58.337059020996094	44.0259895324707
C	82.08291625976562	57.437435150146484	43.28500747680664
C	82.793701171875	58.638797760009766	42.64493942260742
C	84.04428100585938	58.972328186035156	43.50898742675781
C	84.76493835449219	60.27375030517578	43.062625885009766
C	86.2300033569336	60.44746017456055	43.609928131103516
C	84.01315307617188	61.536529541015625	43.51301574707031
C	84.47852325439453	62.83020782470703	42.8415641784668
C	84.02014923095703	62.90849685668945	41.37161636352539
C	84.5790786743164	64.16182708740234	40.56369400024414
C	83.96178436279297	65.4610366821289	41.08480453491211
C	84.30716705322266	64.13199615478516	39.05302429199219
C	85.28092193603516	63.19743728637695	38.26815414428711
C	85.00895690917969	62.946659088134766	36.78117370605469
C	83.67606353759766	62.143497467041016	36.58543014526367
C	83.74824523925781	60.6922492980957	37.303016662597656
C	83.43978881835938	62.06907653808594	35.110233306884766
H	85.05184936523438	56.08467483520508	53.86785888671875
H	84.27432250976562	55.324092864990234	60.391239166259766
H	78.13349914550781	54.45232009887695	59.74908447265625
H	81.08171081542969	54.491966247558594	51.953582763671875
H	83.1411361694336	56.533756256103516	52.00675582885742
H	84.60433959960938	54.85016632080078	52.021644592285156
H	83.39541625976562	54.41911697387695	50.823646545410156
H	83.29116821289062	53.58761215209961	52.46749496459961
H	80.8030014038086	57.63351058959961	51.86141586303711
H	79.4471435546875	56.58565139770508	51.612640380859375
H	80.42195129394531	55.587791442871094	49.72439193725586
H	81.97001647949219	56.35725402832031	50.01960754394531
H	87.45464324951172	55.42701721191406	55.61513900756836
H	87.8054428100586	57.1053352355957	56.136783599853516
H	86.82601165771484	56.74554443359375	54.63773727416992
H	88.36756896972656	57.4973258972168	58.697547912597656
H	88.54979705810547	55.787601470947266	57.92317199707031
H	88.85818481445312	56.033626556396484	59.601627349853516
H	82.55370330810547	55.86796569824219	61.82612991333008
H	80.00350952148438	54.36735534667969	61.66316604614258
H	81.97901916503906	53.758636474609375	62.92683029174805
H	82.36070251464844	52.802635192871094	61.50463104248047
H	83.56212615966797	53.9881591796875	62.27880096435547
H	79.96488952636719	56.56258010864258	62.788299560546875
H	78.76842498779297	56.55500411987305	61.4777717590332
H	80.25067138671875	57.979522705078125	59.900508880615234
H	81.48394775390625	57.85734558105469	61.17424774169922
H	79.99577331542969	58.67621994018555	61.439517974853516
H	75.88660430908203	52.92407989501953	57.53249740600586
H	75.21287536621094	54.44454574584961	57.15071105957031
H	75.85509490966797	54.38682556152344	58.65679168701172
H	77.84086608886719	55.696598052978516	52.81399154663086
H	78.2026138305664	53.730464935302734	48.996768951416016
H	77.27877807617188	52.562469482421875	50.00509262084961
H	79.03669738769531	52.54193115234375	50.030303955078125
H	81.59461212158203	59.233516693115234	47.30503463745117
H	79.92908477783203	58.7092399597168	46.81380844116211
H	82.58700561523438	57.562347412109375	45.79607391357422
H	78.99143981933594	58.293663024902344	44.90681457519531
H	79.28128051757812	57.75947570800781	43.170719146728516
H	79.73348999023438	59.36256790161133	43.67082595825195
H	81.53330993652344	57.041404724121094	42.43107604980469
H	82.82594299316406	56.706695556640625	43.60443878173828
H	83.12753295898438	58.489967346191406	41.61804962158203
H	82.03126525878906	59.417091369628906	42.612613677978516
H	83.83185577392578	59.14451599121094	44.56412887573242
H	84.73027038574219	58.12533950805664	43.52031326293945
H	85.05250549316406	60.25926208496094	42.0113410949707
H	86.23455810546875	60.775569915771484	44.64936065673828
H	86.78116607666016	59.509254455566406	43.54608917236328
H	86.84300231933594	61.142784118652344	43.03647994995117
H	82.9294204711914	61.42496109008789	43.47875213623047
H	84.2498779296875	61.75705337524414	44.55389404296875
H	84.06981658935547	63.660884857177734	43.41692352294922
H	85.5471420288086	63.00233459472656	42.97004318237305
H	82.95399475097656	62.83150100708008	41.15833282470703
H	84.48495483398438	62.07979202270508	40.83748245239258
H	85.63687133789062	64.22770690917969	40.81825637817383
H	83.00448608398438	65.47046661376953	40.56365966796875
H	83.82270050048828	65.43032836914062	42.16545867919922
H	84.58076477050781	66.34153747558594	40.91250991821289
H	84.52214050292969	65.05642700195312	38.517024993896484
H	83.27567291259766	63.82063293457031	38.88821792602539
H	85.28606414794922	62.234580993652344	38.779029846191406
H	86.31484985351562	63.535743713378906	38.336307525634766
H	84.81098937988281	63.900943756103516	36.29306411743164
H	85.72200775146484	62.3176155090332	36.248287200927734
H	82.79206848144531	62.572837829589844	37.05696105957031
H	84.68238067626953	60.13123321533203	37.27473831176758
H	83.53237915039062	60.8187255859375	38.36391067504883
H	83.04252624511719	60.020408630371094	36.814449310302734
H	82.52281188964844	61.523441314697266	34.88765335083008
H	84.12139892578125	61.42796325683594	34.551231384277344
H	83.38630676269531	63.01481628417969	34.57095718383789
