140 

Mg	107.91365814208984	92.80182647705078	56.6556510925293
C	109.00070190429688	91.02642059326172	53.9670524597168
C	106.08321380615234	94.85945892333984	54.5755729675293
C	106.72232818603516	94.50167846679688	59.35630798339844
C	109.81029510498047	90.7981948852539	58.848873138427734
N	107.5523452758789	92.86236572265625	54.4713249206543
C	108.03943634033203	91.96837615966797	53.554420471191406
C	107.74400329589844	92.4421615600586	52.110260009765625
C	106.9789047241211	93.79462432861328	52.37226104736328
C	106.80474853515625	93.84674835205078	53.89032745361328
C	107.74510192871094	95.00614929199219	51.820152282714844
C	106.99164581298828	91.36963653564453	51.255653381347656
C	107.03850555419922	91.63441467285156	49.69673538208008
C	106.41295623779297	90.6839370727539	48.74559783935547
O	106.44202423095703	89.45271301269531	48.78322219848633
O	105.67481231689453	91.34579467773438	47.769752502441406
N	106.54654693603516	94.36080169677734	56.92481994628906
C	105.8031005859375	95.037841796875	55.93072509765625
C	104.80742645263672	95.92642974853516	56.52385711669922
C	104.98542022705078	95.85873413085938	57.929161071777344
C	106.10511779785156	94.90504455566406	58.122440338134766
C	103.83464813232422	96.64408874511719	55.70134735107422
C	104.18965148925781	96.42005157470703	59.061546325683594
O	104.49235534667969	96.16731262207031	60.193729400634766
C	102.9170150756836	97.27459716796875	58.74359893798828
N	108.1760482788086	92.6124267578125	58.740013122558594
C	107.61418151855469	93.50371551513672	59.61918640136719
C	108.01644134521484	93.15399169921875	61.03456497192383
C	108.71504974365234	91.81641387939453	60.947261810302734
C	108.92894744873047	91.66384887695312	59.426788330078125
C	109.00830078125	94.30113983154297	61.44947814941406
C	107.96333312988281	90.64925384521484	61.675811767578125
C	106.80061340332031	89.98053741455078	60.81525802612305
N	109.15714263916016	91.27655029296875	56.469581604003906
C	109.8655014038086	90.55377960205078	57.378814697265625
C	110.73772430419922	89.63973236083984	56.7546272277832
C	110.4349594116211	89.72110748291016	55.355873107910156
C	109.53240203857422	90.81756591796875	55.26413345336914
C	111.51988983154297	88.5494155883789	57.433048248291016
C	110.71845245361328	89.22309112548828	54.0369987487793
O	111.57295989990234	88.41732025146484	53.66904830932617
C	109.8343734741211	90.0795669555664	53.110233306884766
C	110.72236633300781	90.7974624633789	52.15745544433594
O	111.47537994384766	91.7995834350586	52.32435607910156
O	110.49076080322266	90.21453094482422	50.95903015136719
C	111.3161392211914	90.68507385253906	49.87682342529297
C	105.65988159179688	90.57219696044922	46.50859451293945
C	105.42724609375	91.50333404541016	45.295166015625
C	105.18441009521484	91.18608093261719	43.98554229736328
C	105.44676971435547	89.81739807128906	43.41843032836914
C	104.93778228759766	92.26485443115234	43.000144958496094
C	103.46198272705078	92.53410339355469	42.58077621459961
C	102.47024536132812	92.88909149169922	43.73565673828125
C	101.01887512207031	92.7314453125	43.383296966552734
C	100.21324157714844	93.4738998413086	44.5222053527832
C	100.50605010986328	91.21967315673828	43.17449188232422
C	99.31007385253906	91.0186767578125	42.213802337646484
C	99.76254272460938	91.0274887084961	40.75970458984375
C	98.62873840332031	90.7973861694336	39.625972747802734
C	97.86244201660156	89.43505859375	39.778533935546875
C	99.08599090576172	91.0567855834961	38.21577072143555
C	99.3910903930664	92.57221984863281	37.84739685058594
C	100.30608367919922	92.68574523925781	36.65705108642578
C	101.73348999023438	92.14485168457031	36.813541412353516
C	102.68475341796875	93.30506134033203	37.33872604370117
C	102.25105285644531	91.61652374267578	35.57478332519531
H	105.66143798828125	95.5714340209961	53.8630485534668
H	106.3331298828125	94.93356323242188	60.28068161010742
H	110.508544921875	90.13131713867188	59.358943939208984
H	108.73371887207031	92.73822784423828	51.76253890991211
H	105.99298095703125	93.80000305175781	51.907466888427734
H	107.63330078125	94.8896713256836	50.742183685302734
H	108.77315521240234	95.01517486572266	52.182289123535156
H	107.25287628173828	95.94676971435547	52.06721878051758
H	105.99799346923828	91.43840026855469	51.698421478271484
H	107.32979583740234	90.37712097167969	51.55341720581055
H	108.08867645263672	91.81062316894531	49.46393585205078
H	106.50700378417969	92.57594299316406	49.558406829833984
H	102.84751892089844	96.31156158447266	56.0224609375
H	103.82018280029297	96.41497802734375	54.63579559326172
H	103.90792083740234	97.69860076904297	55.96727752685547
H	103.32791137695312	98.20835876464844	58.35972213745117
H	102.37045288085938	97.55187225341797	59.644981384277344
H	102.26615142822266	96.73834991455078	58.05302047729492
H	107.14474487304688	93.11211395263672	61.687625885009766
H	109.66643524169922	91.81077575683594	61.479183197021484
H	109.229736328125	94.26777648925781	62.51622772216797
H	109.93485260009766	94.11183166503906	60.907474517822266
H	108.67584228515625	95.28327178955078	61.113319396972656
H	107.66120147705078	90.93730163574219	62.68270492553711
H	108.64673614501953	89.80017852783203	61.687164306640625
H	107.33287048339844	89.54730987548828	59.96842956542969
H	106.04254913330078	90.70922088623047	60.52815246582031
H	106.12776947021484	89.258056640625	61.27723693847656
H	112.5821762084961	88.7843246459961	57.49987030029297
H	111.55522155761719	87.61539459228516	56.872257232666016
H	111.12802124023438	88.32740020751953	58.42564010620117
H	109.17367553710938	89.3794174194336	52.5989875793457
H	110.87052917480469	91.56136322021484	49.406009674072266
H	111.1012954711914	89.95509338378906	49.09638977050781
H	112.3990249633789	90.70687866210938	49.999107360839844
H	104.820068359375	89.90874481201172	46.715110778808594
H	106.62041473388672	90.08513641357422	46.34052276611328
H	105.38890075683594	92.56951904296875	45.51845932006836
H	106.16603088378906	89.88734436035156	42.602420806884766
H	104.5919189453125	89.46804809570312	42.83938980102539
H	105.71631622314453	89.0285873413086	44.12071990966797
H	105.50140380859375	92.0905990600586	42.083595275878906
H	105.39936065673828	93.18709564208984	43.3530387878418
H	103.4836196899414	93.45915985107422	42.004661560058594
H	103.1468505859375	91.69257354736328	41.963829040527344
H	102.72804260253906	92.16353607177734	44.50716018676758
H	102.76519775390625	93.83555603027344	44.18876266479492
H	100.88805389404297	93.17718505859375	42.397239685058594
H	100.51829528808594	93.10986328125	45.50328063964844
H	100.57484436035156	94.50215148925781	44.516048431396484
H	99.14405059814453	93.3152084350586	44.38164520263672
H	101.4321060180664	90.70329284667969	42.92179870605469
H	100.2931137084961	90.78797912597656	44.15244674682617
H	99.0025634765625	89.98551177978516	42.37538146972656
H	98.5025405883789	91.68121337890625	42.52532958984375
H	100.48625946044922	90.21533966064453	40.69076156616211
H	100.36305236816406	91.91895294189453	40.57868576049805
H	97.87770080566406	91.53217315673828	39.91603469848633
H	97.06166076660156	89.12419128417969	39.1075553894043
H	98.6100082397461	88.64188385009766	39.78937530517578
H	97.39566802978516	89.46282958984375	40.76313781738281
H	98.25232696533203	90.80207061767578	37.56138229370117
H	99.84318542480469	90.3095932006836	37.97817611694336
H	99.7486572265625	93.11016845703125	38.72538375854492
H	98.42323303222656	92.97616577148438	37.550437927246094
H	99.8459701538086	91.9637680053711	35.98240280151367
H	100.24695587158203	93.72966766357422	36.3491096496582
H	101.89476013183594	91.41776275634766	37.60942077636719
H	102.95630645751953	94.01200866699219	36.554771423339844
H	102.2946548461914	93.75218200683594	38.253055572509766
H	103.67121887207031	92.9049072265625	37.57301712036133
H	102.19636535644531	92.2988510131836	34.72652053833008
H	101.74651336669922	90.68569946289062	35.315757751464844
H	103.29853057861328	91.32897186279297	35.665367126464844
