140 

Mg	65.69563293457031	62.99390411376953	57.16987228393555
C	63.89936065673828	64.13310241699219	54.47684860229492
C	68.10177612304688	61.785091400146484	55.11394119262695
C	67.36360931396484	61.8305549621582	59.89198684692383
C	63.089683532714844	63.92137145996094	59.28800582885742
N	65.92579650878906	62.88764572143555	55.040531158447266
C	65.08662414550781	63.40121841430664	54.0977668762207
C	65.44512176513672	62.98822021484375	52.730220794677734
C	66.67987060546875	62.052398681640625	53.0158576965332
C	66.93670654296875	62.24677658081055	54.455955505371094
C	66.4033203125	60.60411071777344	52.629756927490234
C	65.71263885498047	64.18608856201172	51.774681091308594
C	66.06126403808594	63.71624755859375	50.37765121459961
C	66.36676788330078	64.83354949951172	49.3592643737793
O	66.51934814453125	65.9849624633789	49.65446090698242
O	66.42713928222656	64.42655181884766	48.023563385009766
N	67.57233428955078	62.23809814453125	57.4962272644043
C	68.37521362304688	61.824222564697266	56.5059700012207
C	69.6666488647461	61.51787567138672	57.149349212646484
C	69.45280456542969	61.46629333496094	58.534324645996094
C	68.09073638916016	61.8229866027832	58.72686767578125
C	70.8583984375	61.25907516479492	56.29996871948242
C	70.4456787109375	61.04597473144531	59.592918395996094
O	70.17890167236328	60.93133544921875	60.80402755737305
C	71.85670471191406	60.64235305786133	59.23660659790039
N	65.32444763183594	62.86144256591797	59.26836013793945
C	66.11195373535156	62.31220626831055	60.1884880065918
C	65.54692077636719	62.26981735229492	61.56084060668945
C	64.2642822265625	63.08636474609375	61.40031433105469
C	64.17657470703125	63.29397201538086	59.87788772583008
C	65.29076385498047	60.87112045288086	62.12940216064453
C	64.25382995605469	64.4342041015625	62.2022590637207
C	65.24681854248047	65.44622802734375	61.81577682495117
N	63.855289459228516	63.88175964355469	56.965850830078125
C	62.9209098815918	64.13864135742188	57.88577651977539
C	61.807350158691406	64.7907943725586	57.25300216674805
C	62.12405776977539	64.85446166992188	55.88262176513672
C	63.409114837646484	64.30963897705078	55.79368209838867
C	60.55976867675781	65.29885864257812	57.923065185546875
C	61.59378433227539	65.15943908691406	54.61051940917969
O	60.424407958984375	65.57247161865234	54.35414123535156
C	62.792945861816406	64.7348861694336	53.57680892944336
C	62.21519470214844	63.71902084350586	52.57415771484375
O	61.6068115234375	62.7109375	52.86003112792969
O	62.38078689575195	64.07963562011719	51.25632858276367
C	61.704200744628906	63.31632995605469	50.21241760253906
C	66.45175170898438	65.48017883300781	47.02836990356445
C	66.84602355957031	64.83174896240234	45.64487838745117
C	66.84479522705078	65.44510650634766	44.4535026550293
C	66.45658874511719	66.9499740600586	44.20119857788086
C	67.2486801147461	64.71097564697266	43.22435760498047
C	68.67276000976562	65.15302276611328	42.77641296386719
C	69.79383850097656	64.73465728759766	43.69636917114258
C	71.23739624023438	64.87025451660156	43.113006591796875
C	72.25129699707031	63.94166564941406	43.872535705566406
C	71.7275619506836	66.36973571777344	43.31353759765625
C	72.76605987548828	66.9157943725586	42.28815460205078
C	72.14400482177734	67.05174255371094	40.90794372558594
C	73.08211517333984	67.7854232788086	39.91028594970703
C	73.4668197631836	69.25272369384766	40.37556457519531
C	72.43544006347656	67.62095642089844	38.421241760253906
C	72.73490905761719	66.25413513183594	37.74916076660156
C	71.65213012695312	65.83899688720703	36.709228515625
C	70.29612731933594	65.23188018798828	37.265228271484375
C	70.46650695800781	63.719120025634766	37.629207611083984
C	69.11040496826172	65.33068084716797	36.295440673828125
H	68.84423065185547	61.4014778137207	54.41104507446289
H	67.883544921875	61.32829666137695	60.710445404052734
H	62.31456756591797	64.3301010131836	59.93960952758789
H	64.64018249511719	62.41120147705078	52.27500915527344
H	67.4832763671875	62.550743103027344	52.473358154296875
H	65.38390350341797	60.35875701904297	52.92755126953125
H	67.22122192382812	60.02126693725586	53.0533561706543
H	66.53900909423828	60.4459342956543	51.55986785888672
H	66.47932434082031	64.8288345336914	52.20731735229492
H	64.83109283447266	64.81340789794922	51.642616271972656
H	65.12354278564453	63.234619140625	50.10052490234375
H	66.88029479980469	62.99702072143555	50.3758430480957
H	70.60353088378906	61.201534271240234	55.24174118041992
H	71.38815307617188	60.3128776550293	56.41025924682617
H	71.54353332519531	62.09758758544922	56.424861907958984
H	72.44722747802734	61.41392135620117	58.742576599121094
H	71.82286834716797	59.81551742553711	58.52717971801758
H	72.28947448730469	60.24784469604492	60.155941009521484
H	66.16104888916016	62.7180290222168	62.34189987182617
H	63.39206314086914	62.51632308959961	61.72028350830078
H	64.75926208496094	60.93519592285156	63.07887649536133
H	64.73155212402344	60.41147232055664	61.31447219848633
H	66.25837707519531	60.40493392944336	62.315120697021484
H	64.48487854003906	64.1160888671875	63.21887969970703
H	63.23937225341797	64.82554626464844	62.12588882446289
H	64.92840576171875	66.2518310546875	61.1541748046875
H	66.04165649414062	64.88165283203125	61.32835388183594
H	65.70569610595703	65.89301300048828	62.69777297973633
H	60.79796600341797	65.89722442626953	58.802452087402344
H	59.867881774902344	64.48312377929688	58.13275146484375
H	60.03125762939453	65.90596008300781	57.18807601928711
H	63.13290023803711	65.60979461669922	53.022674560546875
H	62.12057113647461	63.678794860839844	49.272544860839844
H	60.63178634643555	63.49277114868164	50.129390716552734
H	62.014198303222656	62.27592086791992	50.31011962890625
H	67.31568145751953	66.12633514404297	47.18398666381836
H	65.49983215332031	66.00757598876953	46.96680450439453
H	67.30205535888672	63.84177780151367	45.635284423828125
H	66.45277404785156	67.55179595947266	45.1099853515625
H	65.4863510131836	66.89109802246094	43.70798110961914
H	67.04542541503906	67.41741180419922	43.4119758605957
H	66.61434936523438	65.08711242675781	42.42170715332031
H	67.07041931152344	63.64399337768555	43.35805892944336
H	68.9405517578125	64.7279052734375	41.80911636352539
H	68.78951263427734	66.23657989501953	42.79568099975586
H	69.58832550048828	65.28412628173828	44.61503601074219
H	69.66280364990234	63.669952392578125	43.88959884643555
H	71.26119995117188	64.66828155517578	42.042144775390625
H	72.02978515625	62.891502380371094	43.68229675292969
H	73.21070861816406	64.17440795898438	43.410526275634766
H	72.30370330810547	63.99403381347656	44.96002197265625
H	70.91090393066406	67.07511138916016	43.15990447998047
H	72.17601013183594	66.52012634277344	44.295562744140625
H	72.97850036621094	67.9692153930664	42.47056579589844
H	73.65653228759766	66.28826141357422	42.32516860961914
H	71.34913635253906	67.759521484375	41.14317321777344
H	71.84477233886719	66.0703125	40.540042877197266
H	74.03351593017578	67.2596435546875	39.82966613769531
H	73.97940063476562	69.1494140625	41.33196258544922
H	74.10763549804688	69.85332489013672	39.730010986328125
H	72.57756805419922	69.86438751220703	40.527854919433594
H	72.90393829345703	68.41315460205078	37.83726501464844
H	71.3544921875	67.76091766357422	38.42935562133789
H	72.63939666748047	65.5233383178711	38.552223205566406
H	73.75201416015625	66.25911712646484	37.3572883605957
H	71.43841552734375	66.7508773803711	36.15163040161133
H	72.13721466064453	65.16336059570312	36.00474548339844
H	70.08172607421875	65.7920913696289	38.17533493041992
H	69.69570922851562	63.48057556152344	38.36205291748047
H	70.27474975585938	63.0891227722168	36.760623931884766
H	71.47247314453125	63.528018951416016	38.00283432006836
H	68.25901794433594	64.76243591308594	36.670040130615234
H	69.42606353759766	64.846923828125	35.37108612060547
H	68.74667358398438	66.3564224243164	36.23508834838867
