140 

Mg	72.12799072265625	57.558685302734375	57.116695404052734
C	74.19728088378906	57.93705368041992	54.326377868652344
C	69.36539459228516	58.05618667602539	55.1834831237793
C	70.17841339111328	57.306312561035156	59.880062103271484
C	74.94683837890625	57.336143493652344	59.08704376220703
N	71.80997467041016	57.7637939453125	54.99698257446289
C	72.7625961303711	57.94944381713867	54.022071838378906
C	72.11772155761719	58.0674934387207	52.64186477661133
C	70.58535766601562	58.09665298461914	53.00514602661133
C	70.54441833496094	58.015380859375	54.51070785522461
C	70.0662612915039	59.35309982299805	52.34748458862305
C	72.44400024414062	56.8897819519043	51.72012710571289
C	72.15425109863281	57.07365417480469	50.268035888671875
C	72.10028839111328	56.023983001708984	49.191070556640625
O	71.96343231201172	54.821659088134766	49.37837600708008
O	72.16790008544922	56.57726287841797	47.98119354248047
N	70.07540130615234	57.72156524658203	57.53330993652344
C	69.05240631103516	57.91162109375	56.57682418823242
C	67.77720642089844	58.06617736816406	57.243629455566406
C	68.06538391113281	57.88587188720703	58.591190338134766
C	69.44401550292969	57.60801696777344	58.72634506225586
C	66.42292785644531	58.35655975341797	56.5870361328125
C	67.08617401123047	57.97660446166992	59.81568145751953
O	67.44239044189453	58.0738639831543	60.9785270690918
C	65.5879135131836	57.992862701416016	59.56081771850586
N	72.53974151611328	57.061458587646484	59.15296936035156
C	71.56675720214844	57.075096130371094	60.12881851196289
C	72.10777282714844	56.81251907348633	61.50465393066406
C	73.63915252685547	56.86262512207031	61.225372314453125
C	73.7287826538086	57.074790954589844	59.798465728759766
C	71.64892578125	57.907596588134766	62.54029846191406
C	74.42677307128906	55.54144287109375	61.71407699584961
C	74.54681396484375	55.14063262939453	63.15284729003906
N	74.16995239257812	57.64318084716797	56.787200927734375
C	75.20820617675781	57.56787872314453	57.67311477661133
C	76.48392486572266	57.83384323120117	57.038124084472656
C	76.1061019897461	57.945919036865234	55.696449279785156
C	74.69369506835938	57.847782135009766	55.61008071899414
C	77.80770111083984	58.25763702392578	57.50321960449219
C	76.58614349365234	58.23600387573242	54.371849060058594
O	77.73751831054688	58.53458786010742	54.060752868652344
C	75.38279724121094	58.08224105834961	53.39851760864258
C	75.26605224609375	59.25267791748047	52.446556091308594
O	75.1769027709961	60.40569305419922	52.803131103515625
O	75.1395034790039	58.81645584106445	51.14606857299805
C	74.84182739257812	59.89242172241211	50.215152740478516
C	71.90522003173828	55.73834228515625	46.84135055541992
C	70.40998077392578	55.38997268676758	46.73598861694336
C	69.38485717773438	55.967960357666016	46.08661651611328
C	69.59156799316406	57.197147369384766	45.233341217041016
C	67.98506164550781	55.380496978759766	46.167144775390625
C	67.64093017578125	54.38895797729492	44.97500991821289
C	66.36688995361328	53.474395751953125	45.328067779541016
C	65.07075500488281	54.2613639831543	45.468421936035156
C	63.95099639892578	53.238487243652344	45.72843551635742
C	64.71466827392578	55.1405143737793	44.11876678466797
C	65.06417083740234	56.59791564941406	43.89223098754883
C	64.8350830078125	57.574745178222656	45.16780471801758
C	63.31626892089844	58.05290985107422	45.45016860961914
C	62.36238098144531	56.786964416503906	45.66730499267578
C	62.623897552490234	58.91605758666992	44.35161209106445
C	63.28546142578125	60.276885986328125	44.050865173339844
C	62.908668518066406	61.31068801879883	45.177276611328125
C	63.820987701416016	62.57915115356445	45.1038703918457
C	63.68757247924805	63.27296829223633	46.49009704589844
C	63.37164306640625	63.453182220458984	43.90873336791992
H	68.42890930175781	58.200164794921875	54.640586853027344
H	69.6385498046875	57.25099563598633	60.82767105102539
H	75.71526336669922	57.270164489746094	59.86011505126953
H	72.50642395019531	59.01952362060547	52.28040313720703
H	70.06240844726562	57.197994232177734	52.67796325683594
H	70.26966857910156	60.1939582824707	53.01056671142578
H	68.98381042480469	59.36397171020508	52.21989059448242
H	70.44196319580078	59.46761703491211	51.33071517944336
H	71.8755111694336	56.055816650390625	52.131744384765625
H	73.46703338623047	56.513832092285156	51.733280181884766
H	72.88996887207031	57.7308235168457	49.804420471191406
H	71.15435791015625	57.5025520324707	50.201927185058594
H	65.92566680908203	59.24473190307617	56.97689437866211
H	65.74797058105469	57.500709533691406	56.579280853271484
H	66.55641174316406	58.73234176635742	55.57260513305664
H	65.49549102783203	59.03768539428711	59.26433181762695
H	65.00091552734375	57.916263580322266	60.47605895996094
H	65.19817352294922	57.25801467895508	58.856407165527344
H	71.72880554199219	55.89555358886719	61.9559326171875
H	74.21742248535156	57.57776641845703	61.81041717529297
H	70.59100341796875	57.78706359863281	62.77347183227539
H	72.2521743774414	57.74932861328125	63.43425369262695
H	71.97595977783203	58.88139343261719	62.17579650878906
H	75.4404525756836	55.592647552490234	61.31667709350586
H	73.91926574707031	54.74745178222656	61.1662483215332
H	75.07874298095703	55.88056945800781	63.750885009765625
H	74.9049072265625	54.128013610839844	63.338504791259766
H	73.5565185546875	55.146976470947266	63.60822677612305
H	78.14877319335938	58.882911682128906	56.67811965942383
H	78.44873046875	57.40081787109375	57.710689544677734
H	77.76675415039062	58.908348083496094	58.37671661376953
H	75.70670318603516	57.20318603515625	52.841346740722656
H	74.42633819580078	59.46493148803711	49.302616119384766
H	75.76345825195312	60.36590576171875	49.87678527832031
H	74.16694641113281	60.6309700012207	50.64779281616211
H	72.44694519042969	54.79751968383789	46.938743591308594
H	72.36113739013672	56.307979583740234	46.03155517578125
H	70.04214477539062	54.40841293334961	47.034889221191406
H	69.27433013916016	57.101436614990234	44.19492721557617
H	70.66476440429688	57.381595611572266	45.281532287597656
H	68.95962524414062	57.95871353149414	45.69023513793945
H	67.27351379394531	56.20258331298828	46.24454116821289
H	67.87362670898438	54.90653610229492	47.142356872558594
H	67.41234588623047	54.917869567871094	44.04975509643555
H	68.44999694824219	53.68817901611328	44.7690544128418
H	66.23333740234375	52.90937042236328	44.405574798583984
H	66.60585021972656	52.695472717285156	46.05213928222656
H	65.13446044921875	54.937015533447266	46.321380615234375
H	64.05713653564453	52.743896484375	46.69395065307617
H	63.04401779174805	53.820594787597656	45.89167022705078
H	63.99089431762695	52.497711181640625	44.929832458496094
H	65.28380584716797	54.683956146240234	43.30898666381836
H	63.65299987792969	55.08785629272461	43.87754821777344
H	66.12744140625	56.59164047241211	43.65241622924805
H	64.52688598632812	57.041786193847656	43.05413818359375
H	65.47135925292969	58.433380126953125	44.95332336425781
H	65.18416595458984	57.042728424072266	46.05278015136719
H	63.33852767944336	58.67237091064453	46.34675598144531
H	61.462398529052734	57.040504455566406	46.2275276184082
H	62.14591598510742	56.44837188720703	44.654090881347656
H	62.954071044921875	56.07023239135742	46.23677062988281
H	61.614986419677734	59.13811492919922	44.699283599853516
H	62.49456787109375	58.41781234741211	43.39081573486328
H	62.86117935180664	60.813720703125	43.20240020751953
H	64.36396026611328	60.190616607666016	43.9185905456543
H	61.866310119628906	61.628013610839844	45.147396087646484
H	63.18651580810547	60.822601318359375	46.1114501953125
H	64.8503646850586	62.22725296020508	45.03575134277344
H	64.26736450195312	62.69076919555664	47.20632553100586
H	64.04315185546875	64.30149841308594	46.55159378051758
H	62.66069793701172	63.38311767578125	46.83866500854492
H	63.897518157958984	64.40724182128906	43.94527816772461
H	62.29494094848633	63.61781692504883	43.8673095703125
H	63.71728515625	62.998313903808594	42.98044204711914
