140 

Mg	87.04033660888672	108.85550689697266	56.389137268066406
C	85.37834930419922	107.82498168945312	53.55058288574219
C	89.78083801269531	109.6247787475586	54.48385238647461
C	88.74304962158203	109.8246078491211	59.319461822509766
C	84.47480773925781	107.85220336914062	58.381591796875
N	87.40495300292969	109.0256576538086	54.29978942871094
C	86.56069946289062	108.55636596679688	53.274627685546875
C	87.260009765625	108.62667846679688	51.89521408081055
C	88.70820617675781	109.10560607910156	52.23455047607422
C	88.65010070800781	109.24555969238281	53.77754592895508
C	89.89251708984375	108.2761001586914	51.71989822387695
C	86.4870834350586	109.37847900390625	50.763099670410156
C	87.1568603515625	109.32785034179688	49.38946533203125
C	86.8056411743164	110.47675323486328	48.414520263671875
O	86.52812957763672	111.647216796875	48.745731353759766
O	86.69488525390625	109.93388366699219	47.15768814086914
N	88.94207000732422	109.7574691772461	56.8269157409668
C	89.99900817871094	109.84366607666016	55.902591705322266
C	91.24551391601562	110.1687240600586	56.5938606262207
C	90.9798355102539	110.17105102539062	58.01952362060547
C	89.54254150390625	109.95767211914062	58.100318908691406
C	92.59856414794922	110.26256561279297	55.86833572387695
C	91.86649322509766	110.36239624023438	59.190616607666016
O	91.4925765991211	110.12122344970703	60.34111404418945
C	93.27523803710938	110.85372161865234	58.94658660888672
N	86.5578842163086	109.01226043701172	58.457828521728516
C	87.45426940917969	109.40592956542969	59.445247650146484
C	86.83373260498047	109.44573211669922	60.77670669555664
C	85.3507308959961	109.0153579711914	60.59698486328125
C	85.44778442382812	108.57682800292969	59.082008361816406
C	87.52984619140625	108.66902160644531	61.97900390625
C	84.27977752685547	110.05998229980469	60.82709884643555
C	83.97300720214844	110.35803985595703	62.29983901977539
N	85.39359283447266	107.89683532714844	56.09970474243164
C	84.38980865478516	107.57865142822266	57.013912200927734
C	83.39240264892578	106.82707977294922	56.30363082885742
C	83.64952087402344	106.99463653564453	54.97390365600586
C	84.93962097167969	107.60124969482422	54.8896484375
C	82.12265014648438	106.2169189453125	56.85364532470703
C	83.18429565429688	106.56775665283203	53.62882614135742
O	82.20870208740234	105.88219451904297	53.30109405517578
C	84.26049041748047	107.18060302734375	52.65666961669922
C	84.82693481445312	106.0506820678711	51.83319091796875
O	85.41839599609375	105.04824829101562	52.26006317138672
O	84.75251770019531	106.27972412109375	50.497650146484375
C	85.21063995361328	105.23151397705078	49.65538024902344
C	86.4725570678711	110.87403869628906	46.08316421508789
C	87.73582458496094	111.67731475830078	45.95994567871094
C	88.90522766113281	111.46117401123047	45.28313446044922
C	89.21416473388672	110.11270141601562	44.596961975097656
C	90.09866333007812	112.38529968261719	45.42625045776367
C	90.05362701416016	113.7086410522461	44.65024948120117
C	90.47420501708984	115.02545166015625	45.39813995361328
C	91.95616912841797	115.1784439086914	45.82358932495117
C	92.20191192626953	116.34246063232422	46.81434631347656
C	92.95940399169922	115.20560455322266	44.623619079589844
C	93.93344116210938	114.03052520751953	44.40662384033203
C	94.69730377197266	113.48594665527344	45.66474533081055
C	96.0250244140625	112.61409759521484	45.40159606933594
C	97.12444305419922	113.35655212402344	44.592689514160156
C	95.69014739990234	111.16661834716797	44.77556228637695
C	96.81233215332031	110.10806274414062	44.84333038330078
C	96.41356658935547	108.83049774169922	43.95592498779297
C	97.26359558105469	107.53610229492188	44.1179084777832
C	98.7582778930664	107.71765899658203	43.70578384399414
C	96.56910705566406	106.41765594482422	43.324642181396484
H	90.60797882080078	109.78123474121094	53.78827667236328
H	89.34686279296875	110.17521667480469	60.1590690612793
H	83.61575317382812	107.61421966552734	59.01233673095703
H	87.29008483886719	107.56671905517578	51.64291000366211
H	88.87074279785156	110.10453033447266	51.829803466796875
H	89.74420166015625	107.97425079345703	50.683082580566406
H	90.05119323730469	107.32733917236328	52.23249435424805
H	90.78561401367188	108.88714599609375	51.850669860839844
H	86.3228530883789	110.37286376953125	51.178226470947266
H	85.49588012695312	108.9512939453125	50.61100387573242
H	86.96151733398438	108.33648681640625	48.98063278198242
H	88.21800231933594	109.44207763671875	49.610897064208984
H	93.0006103515625	111.25263214111328	56.083370208740234
H	92.51602172851562	110.10315704345703	54.79322052001953
H	93.2503662109375	109.45423889160156	56.19977951049805
H	94.00450897216797	110.13843536376953	58.56623077392578
H	93.74079895019531	111.1271743774414	59.89345932006836
H	93.26817321777344	111.79486083984375	58.396793365478516
H	86.86310577392578	110.51339721679688	60.99424362182617
H	85.21881103515625	108.16521453857422	61.266273498535156
H	87.24118041992188	109.04476928710938	62.960628509521484
H	87.35020446777344	107.59671020507812	61.90163040161133
H	88.6069564819336	108.83102416992188	61.937870025634766
H	83.33133697509766	109.7914047241211	60.36189651489258
H	84.58340454101562	110.95992279052734	60.29228591918945
H	84.90833282470703	110.56092071533203	62.821468353271484
H	83.350341796875	109.55291748046875	62.68993377685547
H	83.39733123779297	111.2827377319336	62.33981704711914
H	82.3638916015625	105.64899444580078	57.7521858215332
H	81.654296875	105.54900360107422	56.13071823120117
H	81.33000183105469	106.95744323730469	56.960506439208984
H	83.79693603515625	107.84637451171875	51.92867660522461
H	84.71495819091797	104.26834106445312	49.77664566040039
H	86.29688262939453	105.2529067993164	49.743133544921875
H	84.98932647705078	105.68405151367188	48.68877029418945
H	85.64335632324219	111.57044219970703	46.20784378051758
H	86.27175903320312	110.22281646728516	45.23246383666992
H	87.72250366210938	112.57621765136719	46.576290130615234
H	89.4210433959961	110.24893951416016	43.53548049926758
H	88.46974182128906	109.35009002685547	44.82577896118164
H	90.16896057128906	109.70404815673828	44.92780303955078
H	90.96719360351562	111.81519317626953	45.09648132324219
H	90.15505981445312	112.50030517578125	46.508697509765625
H	90.59276580810547	113.44955444335938	43.73904800415039
H	89.07022094726562	113.86531829833984	44.20697021484375
H	90.12643432617188	115.8188705444336	44.73659133911133
H	89.7731704711914	115.18218994140625	46.21793746948242
H	92.18505096435547	114.25729370117188	46.35952377319336
H	91.4351806640625	116.28424835205078	47.58689498901367
H	93.23136138916016	116.37916564941406	47.170711517333984
H	92.16401672363281	117.2579345703125	46.22397994995117
H	92.41027069091797	115.20580291748047	43.68205642700195
H	93.51287078857422	116.13688659667969	44.744041442871094
H	93.48262786865234	113.26793670654297	43.77153015136719
H	94.65791320800781	114.52400207519531	43.75878143310547
H	93.9317398071289	113.0423355102539	46.30131149291992
H	95.06481170654297	114.36946868896484	46.18669128417969
H	96.45870971679688	112.38702392578125	46.375484466552734
H	97.18498992919922	114.41548156738281	44.84386444091797
H	98.06245422363281	112.81459045410156	44.71316909790039
H	96.86539459228516	113.38601684570312	43.534332275390625
H	95.3360366821289	111.38251495361328	43.76754379272461
H	94.77881622314453	110.80142974853516	45.24909591674805
H	96.89810943603516	109.77737426757812	45.8784065246582
H	97.8077621459961	110.50946044921875	44.65322494506836
H	95.43204498291016	108.58512115478516	44.36151123046875
H	96.19218444824219	109.04944610595703	42.911338806152344
H	97.21192932128906	107.28766632080078	45.17795944213867
H	99.14427947998047	106.69905853271484	43.74554443359375
H	98.8484878540039	108.0685043334961	42.67774200439453
H	99.34806060791016	108.31572723388672	44.40046691894531
H	96.58843231201172	106.70355987548828	42.27298355102539
H	95.56996154785156	106.2559585571289	43.729190826416016
H	97.11869049072266	105.49839782714844	43.527191162109375
