280 

Mg	57.703826904296875	88.65792083740234	57.12628936767578
C	58.499507904052734	86.6897201538086	54.44904708862305
C	57.55780029296875	91.43280029296875	55.10797119140625
C	56.7558479309082	90.46849060058594	59.815555572509766
C	58.535457611083984	86.04674530029297	59.35428237915039
N	57.83705139160156	88.9744644165039	55.06416320800781
C	58.13114547729492	88.02643585205078	54.12265396118164
C	58.01063919067383	88.70889282226562	52.790435791015625
C	58.0611457824707	90.23780822753906	53.03581237792969
C	57.6978645324707	90.21324157714844	54.49850082397461
C	59.34938430786133	90.86589050292969	52.7735481262207
C	56.87605285644531	88.22708892822266	51.91875457763672
C	56.746124267578125	88.82968139648438	50.44415283203125
C	55.690574645996094	88.28202056884766	49.39422607421875
O	54.57126235961914	87.97530364990234	49.73638916015625
O	56.1353645324707	88.2796630859375	48.07441711425781
N	57.2397575378418	90.70033264160156	57.406620025634766
C	57.20820999145508	91.65467834472656	56.445396423339844
C	56.80292510986328	92.88090515136719	57.12074279785156
C	56.43684005737305	92.61929321289062	58.43030548095703
C	56.875003814697266	91.2196273803711	58.62739181518555
C	56.92366027832031	94.15778350830078	56.32568359375
C	56.06849670410156	93.5615463256836	59.476097106933594
O	55.98903274536133	93.2447509765625	60.66072463989258
C	55.73442077636719	95.02204132080078	59.16488265991211
N	57.62088394165039	88.32291412353516	59.36466979980469
C	57.29751968383789	89.29559326171875	60.214420318603516
C	57.206459045410156	88.76300811767578	61.70547866821289
C	57.73270034790039	87.25382995605469	61.52878189086914
C	58.03257369995117	87.20618438720703	60.0228157043457
C	57.988094329833984	89.68743896484375	62.598358154296875
C	56.75020217895508	86.1257553100586	62.007328033447266
C	56.424224853515625	86.03778839111328	63.521610260009766
N	58.36217498779297	86.751220703125	56.99787139892578
C	58.70186233520508	85.8213882446289	57.92748260498047
C	59.34056091308594	84.6739273071289	57.24338150024414
C	59.183746337890625	84.95465087890625	55.912174224853516
C	58.68421173095703	86.23992156982422	55.819095611572266
C	59.64792251586914	83.38593292236328	57.829708099365234
C	59.32740020751953	84.41864776611328	54.579044342041016
O	59.677101135253906	83.32600402832031	54.14833450317383
C	58.91087341308594	85.56700897216797	53.528804779052734
C	60.00965118408203	85.95896911621094	52.538455963134766
O	61.11880874633789	86.41865539550781	52.73933792114258
O	59.451141357421875	85.94256591796875	51.25883102416992
C	60.43490982055664	86.21566009521484	50.22631072998047
C	55.12188720703125	88.28116607666016	47.06013488769531
C	54.50094223022461	89.65266418457031	47.18461990356445
C	54.94938278198242	90.82568359375	46.646995544433594
C	56.24103927612305	90.94890594482422	45.88302230834961
C	54.2185173034668	92.11962890625	46.998023986816406
C	53.10636901855469	92.45635223388672	45.96572494506836
C	52.38933563232422	93.73847198486328	46.188201904296875
C	53.196529388427734	95.05599212646484	46.558494567871094
C	52.148101806640625	96.19252014160156	46.68428039550781
C	54.32951354980469	95.3657455444336	45.50491714477539
C	55.74729919433594	95.65962982177734	46.16667175292969
C	55.93067169189453	97.00850677490234	46.92087173461914
C	56.06479263305664	98.28406524658203	46.12479782104492
C	54.774147033691406	98.91143035888672	45.600013732910156
C	57.15365982055664	98.21963500976562	45.10879135131836
C	58.487030029296875	97.7171401977539	45.56747055053711
C	59.53777313232422	98.09364318847656	44.4792366027832
C	60.98040008544922	97.67892456054688	44.868778228759766
C	61.66675567626953	98.35335540771484	46.1534309387207
C	61.86627960205078	97.93133544921875	43.611141204833984
H	57.541236877441406	92.258544921875	54.393592834472656
H	56.12566375732422	91.01250457763672	60.5222282409668
H	58.8913688659668	85.21141815185547	59.9609375
H	58.97983169555664	88.5223388671875	52.327877044677734
H	57.29168701171875	90.77872467041016	52.484947204589844
H	59.68682861328125	90.52204895019531	51.7957878112793
H	60.0818977355957	90.4647216796875	53.473976135253906
H	59.18842315673828	91.94342803955078	52.8068962097168
H	55.93777084350586	88.41864776611328	52.439369201660156
H	56.98419952392578	87.15423583984375	51.7593994140625
H	57.727142333984375	88.7602310180664	49.97417449951172
H	56.645809173583984	89.9076919555664	50.57038879394531
H	57.866668701171875	93.99417877197266	55.8040771484375
H	57.053688049316406	95.05206298828125	56.935157775878906
H	56.103790283203125	94.28201293945312	55.61824417114258
H	56.65093231201172	95.57870483398438	58.969383239746094
H	55.246639251708984	95.39933013916016	60.06366729736328
H	55.01277542114258	95.08856964111328	58.35069274902344
H	56.16206741333008	88.83097839355469	62.009986877441406
H	58.716312408447266	87.140380859375	61.98457717895508
H	58.05973434448242	89.21276092529297	63.57695007324219
H	58.99196243286133	89.7347412109375	62.17631912231445
H	57.500152587890625	90.66207122802734	62.60908508300781
H	57.180137634277344	85.15074920654297	61.77796173095703
H	55.81304931640625	86.31196594238281	61.482757568359375
H	56.01249313354492	86.99037170410156	63.855003356933594
H	57.228546142578125	85.6672592163086	64.15711975097656
H	55.635154724121094	85.28934478759766	63.5943603515625
H	60.681644439697266	83.23231506347656	58.1394157409668
H	59.31349182128906	82.70476531982422	57.04723358154297
H	58.9808235168457	83.19935607910156	58.67129898071289
H	57.966392517089844	85.24413299560547	53.090843200683594
H	60.25493240356445	87.12775421142578	49.65728759765625
H	60.302207946777344	85.41088104248047	49.50324630737305
H	61.48479080200195	86.25397491455078	50.51681137084961
H	54.43235397338867	87.45735168457031	47.244529724121094
H	55.607818603515625	88.09016418457031	46.10332107543945
H	53.643310546875	89.7349853515625	47.852294921875
H	56.859317779541016	90.05268859863281	45.831695556640625
H	56.8243408203125	91.6996841430664	46.416114807128906
H	56.00356674194336	91.3016128540039	44.87937545776367
H	54.88024139404297	92.9830093383789	47.067203521728516
H	53.63547897338867	91.94656372070312	47.90258026123047
H	53.514957427978516	92.4032974243164	44.95659255981445
H	52.43523406982422	91.59774780273438	45.94319152832031
H	51.84159851074219	93.93531036376953	45.26660919189453
H	51.736759185791016	93.52165985107422	47.03392028808594
H	53.600425720214844	94.88739013671875	47.5567626953125
H	51.29193115234375	95.76548767089844	47.206504821777344
H	52.46903991699219	97.08403778076172	47.22307586669922
H	51.96113204956055	96.47389221191406	45.6479606628418
H	54.506919860839844	94.55545043945312	44.797767639160156
H	53.999332427978516	96.17537689208984	44.854095458984375
H	55.896324157714844	94.82171630859375	46.847721099853516
H	56.45944595336914	95.5757064819336	45.345760345458984
H	56.87708282470703	96.88858795166016	47.44815444946289
H	55.17597961425781	97.16885375976562	47.690826416015625
H	56.40353775024414	99.01490783691406	46.859100341796875
H	54.96319580078125	99.83677673339844	45.055870056152344
H	54.41742706298828	98.21906280517578	44.83747863769531
H	54.15968322753906	99.00443267822266	46.4954948425293
H	57.33047103881836	99.2371826171875	44.760318756103516
H	56.70589065551758	97.55230712890625	44.37240219116211
H	58.44892501831055	96.63471984863281	45.69001770019531
H	58.750518798828125	98.225830078125	46.494773864746094
H	59.356998443603516	97.80831909179688	43.44288635253906
H	59.532142639160156	99.1835708618164	44.46645736694336
H	60.982608795166016	96.59458923339844	44.97970962524414
H	62.589134216308594	97.78044891357422	46.248741149902344
H	62.00688934326172	99.38140869140625	46.0288200378418
H	60.9604606628418	98.23783111572266	46.97555923461914
H	61.63596725463867	97.15758514404297	42.878780364990234
H	62.905433654785156	97.94453430175781	43.939876556396484
H	61.528717041015625	98.87191009521484	43.17582702636719
Mg	62.547969818115234	96.47830200195312	56.68976593017578
C	63.61692810058594	98.1184310913086	53.90292739868164
C	61.896175384521484	93.77029418945312	54.779781341552734
C	61.631168365478516	94.76475524902344	59.49859619140625
C	63.10895919799805	99.29322814941406	58.592430114746094
N	62.628562927246094	96.03295135498047	54.61647415161133
C	63.07639694213867	96.88359069824219	53.64654541015625
C	62.869869232177734	96.2706298828125	52.262001037597656
C	62.11098098754883	94.95613098144531	52.54052734375
C	62.172019958496094	94.87483215332031	54.04053497314453
C	60.67564392089844	94.84935760498047	51.96297073364258
C	64.15336608886719	96.0357666015625	51.44070053100586
C	63.832359313964844	95.87940216064453	49.90745162963867
C	64.95613861083984	95.90553283691406	48.93203353881836
O	66.08041381835938	96.31031799316406	49.093055725097656
O	64.37879943847656	95.54595947265625	47.70464324951172
N	61.98614501953125	94.56050109863281	57.15132141113281
C	61.81684112548828	93.54222106933594	56.186317443847656
C	61.337646484375	92.3397445678711	56.82185745239258
C	61.245025634765625	92.59477233886719	58.21747589111328
C	61.6506233215332	93.99787139892578	58.32260513305664
C	61.15018844604492	90.89073944091797	56.09305953979492
C	60.92563247680664	91.6651611328125	59.36030960083008
O	60.95321273803711	91.9500732421875	60.550270080566406
C	60.48850631713867	90.17837524414062	59.09565734863281
N	62.21813201904297	97.02747344970703	58.7423095703125
C	61.89057922363281	96.0951156616211	59.71323013305664
C	61.956260681152344	96.69190216064453	61.087703704833984
C	62.092796325683594	98.24467468261719	60.786827087402344
C	62.4698486328125	98.26041412353516	59.300445556640625
C	60.64781951904297	96.39263916015625	61.94309997558594
C	63.080387115478516	99.00108337402344	61.73252487182617
C	64.5302963256836	98.68344116210938	61.55372619628906
N	63.38093566894531	98.2432861328125	56.36285400390625
C	63.509613037109375	99.32301330566406	57.20594787597656
C	64.06825256347656	100.46218872070312	56.494598388671875
C	64.11817932128906	100.01589965820312	55.1374626159668
C	63.71421432495117	98.69232177734375	55.13721466064453
C	64.3046875	101.73202514648438	57.20625305175781
C	64.39604949951172	100.43213653564453	53.80125045776367
O	64.63603210449219	101.55525970458984	53.38322067260742
C	64.1095962524414	99.19017791748047	52.920555114746094
C	63.06238555908203	99.56575012207031	51.908756256103516
O	61.880165100097656	99.72296905517578	52.133331298828125
O	63.527469635009766	99.63916778564453	50.65203094482422
C	62.71794891357422	100.24247741699219	49.584922790527344
C	65.26349639892578	95.48533630371094	46.521339416503906
C	64.46125793457031	95.0410385131836	45.37662124633789
C	64.70731353759766	95.2931900024414	44.10627746582031
C	66.04733276367188	95.86390686035156	43.711185455322266
C	63.732418060302734	94.81079864501953	42.98244857788086
C	64.13117218017578	93.42594909667969	42.48291778564453
C	64.13427734375	92.39844512939453	43.60294723510742
C	64.58078002929688	90.93901824951172	43.22880554199219
C	63.86948013305664	89.769775390625	44.079586029052734
C	66.13288116455078	90.79415893554688	43.13810729980469
C	66.678466796875	89.9172134399414	42.001426696777344
C	66.60360717773438	90.67848205566406	40.64067459106445
C	67.23004913330078	89.99030303955078	39.418975830078125
C	68.8242416381836	89.90122985839844	39.62203598022461
C	67.04607391357422	90.74684143066406	38.093421936035156
C	65.69688415527344	90.48209381103516	37.343544006347656
C	65.39908599853516	91.43363189697266	36.206947326660156
C	65.11676025390625	92.82716369628906	36.706729888916016
C	63.86654281616211	92.9703598022461	37.6378288269043
C	64.94961547851562	93.79791259765625	35.495792388916016
H	61.537384033203125	92.94572448730469	54.160240173339844
H	61.45278549194336	94.15999603271484	60.39016342163086
H	63.118343353271484	100.24462890625	59.12837600708008
H	62.259254455566406	96.96891021728516	51.6895751953125
H	62.62504196166992	94.15474700927734	52.00983428955078
H	60.095462799072266	95.76213836669922	52.09835433959961
H	60.16559600830078	93.98299407958984	52.38409423828125
H	60.666927337646484	94.76050567626953	50.87663269042969
H	64.65531921386719	95.16452026367188	51.86149215698242
H	64.78023529052734	96.88617706298828	51.70894241333008
H	63.20972442626953	96.64759826660156	49.448856353759766
H	63.328834533691406	94.91807556152344	49.80531692504883
H	60.17234420776367	90.95642852783203	55.61599349975586
H	61.3314208984375	90.07506561279297	56.79300308227539
H	61.96630096435547	90.71163177490234	55.39307403564453
H	61.34418869018555	89.5954818725586	58.754878997802734
H	59.61968994140625	90.21539306640625	58.4384765625
H	60.130496978759766	89.67810821533203	59.99546813964844
H	62.75373840332031	96.25321197509766	61.687435150146484
H	61.1012077331543	98.69622802734375	60.81771469116211
H	60.622802734375	95.3102798461914	62.06935501098633
H	60.514644622802734	96.78468322753906	62.95140075683594
H	59.823909759521484	96.79248809814453	61.35200119018555
H	62.86895751953125	98.80625915527344	62.78392791748047
H	63.08341598510742	100.08727264404297	61.6413688659668
H	64.59951782226562	97.59906768798828	61.46749496459961
H	65.09707641601562	99.1392822265625	62.36555480957031
H	64.9051742553711	99.1324234008789	60.633949279785156
H	63.36015701293945	102.11776733398438	57.5898551940918
H	64.76749420166016	102.35358428955078	56.43970489501953
H	64.94048309326172	101.62604522705078	58.08524703979492
H	65.03495788574219	99.00733184814453	52.37432861328125
H	62.77824020385742	99.81163024902344	48.585506439208984
H	63.0324592590332	101.2767333984375	49.44520950317383
H	61.6904296875	100.08063507080078	49.91066360473633
H	66.01738739013672	94.73534393310547	46.76063537597656
H	65.64891815185547	96.49962615966797	46.41756057739258
H	63.579410552978516	94.46448516845703	45.655982971191406
H	65.97341918945312	96.89246368408203	43.358036041259766
H	66.41927337646484	95.20636749267578	42.925437927246094
H	66.82955932617188	95.80867004394531	44.46826934814453
H	63.84014129638672	95.5550308227539	42.19337844848633
H	62.66847229003906	94.79782104492188	43.218990325927734
H	63.392276763916016	93.27735900878906	41.69548034667969
H	65.1134033203125	93.53946685791016	42.02418899536133
H	64.88631439208984	92.6509017944336	44.35049057006836
H	63.183475494384766	92.3842544555664	44.135738372802734
H	64.2363052368164	90.74563598632812	42.21290969848633
H	64.1124267578125	89.93946838378906	45.12852096557617
H	62.78606033325195	89.7245101928711	43.9688720703125
H	64.26115417480469	88.81204223632812	43.73687744140625
H	66.65325927734375	91.73534393310547	42.96067810058594
H	66.51729583740234	90.35919189453125	44.060672760009766
H	67.75303649902344	89.77780151367188	42.1196403503418
H	66.15248107910156	88.97097778320312	41.87452697753906
H	67.13813018798828	91.61494445800781	40.80010223388672
H	65.63094329833984	90.96358489990234	40.23975372314453
H	66.75650787353516	89.0577392578125	39.11204147338867
H	69.28707885742188	90.85502624511719	39.875308990478516
H	68.89376831054688	89.10175323486328	40.35967254638672
H	69.24275970458984	89.51434326171875	38.69291305541992
H	67.83226013183594	90.42601776123047	37.40999984741211
H	67.11128997802734	91.8093032836914	38.32802200317383
H	64.88957214355469	90.37185668945312	38.06755447387695
H	65.72249603271484	89.46194458007812	36.960472106933594
H	66.28842163085938	91.56976318359375	35.59159851074219
H	64.5151596069336	91.10823822021484	35.658409118652344
H	65.947998046875	93.22352600097656	37.289878845214844
H	63.9243278503418	93.90967559814453	38.187801361083984
H	62.96119689941406	93.03020477294922	37.03378677368164
H	63.796897888183594	92.23026275634766	38.43500518798828
H	65.9371566772461	93.9637451171875	35.065269470214844
H	64.61290740966797	94.7780532836914	35.833526611328125
H	64.29503631591797	93.30952453613281	34.77391052246094
