280 

Mg	103.90731048583984	100.53604125976562	56.40231704711914
C	101.81563568115234	100.87411499023438	53.655799865722656
C	106.24725341796875	99.16203308105469	54.43592834472656
C	105.77198791503906	100.1548843383789	59.17915725708008
C	101.25762939453125	101.60275268554688	58.45656967163086
N	104.08726501464844	100.34541320800781	54.311126708984375
C	103.14972686767578	100.46435546875	53.34547424316406
C	103.75877380371094	100.2427749633789	51.90983200073242
C	104.96939849853516	99.45468139648438	52.29581832885742
C	105.1448974609375	99.68909454345703	53.777713775634766
C	104.83092498779297	97.8914794921875	52.02915573120117
C	104.024169921875	101.6362075805664	51.03761672973633
C	104.62831115722656	101.17949676513672	49.660301208496094
C	104.82369995117188	102.28572082519531	48.636077880859375
O	105.00557708740234	103.44084930419922	48.874534606933594
O	104.49822998046875	101.76890563964844	47.41359329223633
N	105.82390594482422	99.71183013916016	56.71470260620117
C	106.57402801513672	99.09156036376953	55.81646728515625
C	107.67010498046875	98.38126373291016	56.44706726074219
C	107.58399200439453	98.75169372558594	57.852264404296875
C	106.35792541503906	99.60647583007812	58.01079177856445
C	108.64295196533203	97.5245590209961	55.673580169677734
C	108.51556396484375	98.40961456298828	58.99086380004883
O	108.3291015625	98.73126220703125	60.201725006103516
C	109.78514862060547	97.70120239257812	58.68549728393555
N	103.6567611694336	100.94371795654297	58.397613525390625
C	104.53734588623047	100.75890350341797	59.39497375488281
C	104.1026611328125	101.24813079833984	60.821537017822266
C	102.6930160522461	101.75694274902344	60.49861526489258
C	102.50572967529297	101.45013427734375	59.0250358581543
C	104.19114685058594	100.08919525146484	61.879615783691406
C	102.54304504394531	103.2705307006836	60.79140090942383
C	102.37458801269531	103.56909942626953	62.358280181884766
N	101.8927001953125	101.16848754882812	56.17676544189453
C	100.98632049560547	101.43411254882812	57.095436096191406
C	99.67192840576172	101.47698974609375	56.53097152709961
C	99.96666717529297	101.32905578613281	55.13969421386719
C	101.34053039550781	101.15638732910156	54.96818161010742
C	98.27582550048828	101.53632354736328	57.13410186767578
C	99.30794525146484	101.21150207519531	53.866973876953125
O	98.15070343017578	101.22628021240234	53.60300064086914
C	100.50528717041016	101.00099182128906	52.86505126953125
C	100.33087921142578	99.82844543457031	51.967891693115234
O	100.10665130615234	98.68111419677734	52.27012252807617
O	100.53253173828125	100.15155029296875	50.656742095947266
C	100.31505584716797	99.06912994384766	49.75795364379883
C	104.94975280761719	102.58147430419922	46.26358413696289
C	106.4131088256836	102.39997100830078	46.20992660522461
C	107.12090301513672	101.53075408935547	45.4879150390625
C	106.39937591552734	100.3511962890625	44.85886001586914
C	108.67163848876953	101.56245422363281	45.468387603759766
C	109.29717254638672	101.20819854736328	44.09588623046875
C	110.622802734375	102.0302963256836	43.98167037963867
C	111.73822021484375	101.7575912475586	45.037925720214844
C	112.23594665527344	103.1724853515625	45.52358627319336
C	112.9579086303711	100.97927856445312	44.50403594970703
C	112.71292877197266	99.47512817382812	44.14714813232422
C	112.38501739501953	98.56842041015625	45.387115478515625
C	112.14812469482422	97.10810852050781	45.009765625
C	113.4671859741211	96.37084197998047	44.5831298828125
C	111.0373306274414	96.91619873046875	43.833587646484375
C	110.60660552978516	95.52542877197266	43.47568130493164
C	110.5050277709961	94.4942398071289	44.608158111572266
C	109.93041229248047	93.02203369140625	44.310997009277344
C	108.54325866699219	92.94478607177734	43.67918395996094
C	109.88099670410156	92.3055191040039	45.700679779052734
H	106.93275451660156	98.616455078125	53.784088134765625
H	106.33548736572266	100.0865478515625	60.112037658691406
H	100.4073257446289	101.95086669921875	59.04670715332031
H	103.06973266601562	99.68135070800781	51.278873443603516
H	105.85107421875	99.71648406982422	51.710853576660156
H	104.95513153076172	97.66456604003906	50.97030258178711
H	103.83576965332031	97.5279312133789	52.28528594970703
H	105.5904769897461	97.36263275146484	52.60491943359375
H	104.59427642822266	102.39106750488281	51.57915115356445
H	103.07051849365234	102.06427764892578	50.728736877441406
H	103.9796371459961	100.40841674804688	49.24463653564453
H	105.61725616455078	100.74984741210938	49.819969177246094
H	108.64089965820312	96.4879150390625	56.01047134399414
H	109.6816635131836	97.85493469238281	55.674766540527344
H	108.3340835571289	97.30561065673828	54.65144729614258
H	109.47345733642578	96.65721130371094	58.65364074707031
H	110.47029113769531	97.76612091064453	59.53075408935547
H	110.32704162597656	98.01001739501953	57.79158020019531
H	104.60337829589844	102.1675796508789	61.12482452392578
H	101.90936279296875	101.13822937011719	60.93586730957031
H	103.5079345703125	100.43914031982422	62.653472900390625
H	103.99662780761719	99.0870590209961	61.4975700378418
H	105.2099609375	100.02311706542969	62.26139450073242
H	101.64910125732422	103.68094635009766	60.32180404663086
H	103.3280258178711	103.81634521484375	60.26796340942383
H	102.51603698730469	104.62527465820312	62.587554931640625
H	102.98432159423828	102.9176254272461	62.98429870605469
H	101.3216552734375	103.33255767822266	62.51155471801758
H	97.93122863769531	102.548828125	56.92392349243164
H	98.42221069335938	101.53133392333984	58.2142219543457
H	97.64766693115234	100.69454193115234	56.84266662597656
H	100.58209228515625	101.92726135253906	52.2956428527832
H	99.3098373413086	98.67648315429688	49.9111328125
H	100.98016357421875	98.21891784667969	49.90917205810547
H	100.41192626953125	99.42811584472656	48.733333587646484
H	104.8048324584961	103.65599822998047	46.375423431396484
H	104.50596618652344	102.20574188232422	45.34164047241211
H	106.98737335205078	103.12859344482422	46.782127380371094
H	105.34320068359375	100.24100494384766	45.104713439941406
H	106.72423553466797	99.3528060913086	45.15175247192383
H	106.324462890625	100.41138458251953	43.773101806640625
H	109.0645980834961	100.81661987304688	46.159324645996094
H	108.88267517089844	102.57415008544922	45.814857482910156
H	109.20830535888672	100.14298248291016	43.88252258300781
H	108.5684585571289	101.58989715576172	43.380775451660156
H	111.10413360595703	101.9216537475586	43.009761810302734
H	110.27482604980469	103.06168365478516	43.9246711730957
H	111.35074615478516	101.15225982666016	45.857398986816406
H	112.99038696289062	102.91828155517578	46.268096923828125
H	112.58826446533203	103.77349090576172	44.685264587402344
H	111.42784118652344	103.71741485595703	46.01156234741211
H	113.30321502685547	101.52359771728516	43.62507247924805
H	113.8027572631836	100.93815612792969	45.19151306152344
H	111.85700225830078	99.42311096191406	43.474239349365234
H	113.59786224365234	99.06685638427734	43.65898513793945
H	111.5013427734375	98.9173812866211	45.92140197753906
H	113.2699966430664	98.6815185546875	46.013301849365234
H	111.72293853759766	96.57600402832031	45.86075210571289
H	113.27750396728516	95.32826232910156	44.32783508300781
H	113.942138671875	96.85472106933594	43.72968292236328
H	114.23584747314453	96.47486877441406	45.34892654418945
H	111.47744750976562	97.4765396118164	43.008724212646484
H	110.100830078125	97.38170623779297	44.140811920166016
H	111.20960998535156	95.08877563476562	42.6795539855957
H	109.62014770507812	95.62911224365234	43.02371597290039
H	111.4445571899414	94.33837890625	45.13833999633789
H	109.76860046386719	94.91818237304688	45.290828704833984
H	110.66062927246094	92.5337142944336	43.66570281982422
H	108.46076202392578	93.62583923339844	42.8321533203125
H	108.47911834716797	91.90117645263672	43.371185302734375
H	107.8028793334961	93.07933807373047	44.467735290527344
H	109.7236557006836	91.24183654785156	45.52201843261719
H	109.01119232177734	92.63236236572266	46.2705192565918
H	110.79621124267578	92.40547180175781	46.28419494628906
Mg	107.91365814208984	92.80182647705078	56.6556510925293
C	109.00070190429688	91.02642059326172	53.9670524597168
C	106.08321380615234	94.85945892333984	54.5755729675293
C	106.72232818603516	94.50167846679688	59.35630798339844
C	109.81029510498047	90.7981948852539	58.848873138427734
N	107.5523452758789	92.86236572265625	54.4713249206543
C	108.03943634033203	91.96837615966797	53.554420471191406
C	107.74400329589844	92.4421615600586	52.110260009765625
C	106.9789047241211	93.79462432861328	52.37226104736328
C	106.80474853515625	93.84674835205078	53.89032745361328
C	107.74510192871094	95.00614929199219	51.820152282714844
C	106.99164581298828	91.36963653564453	51.255653381347656
C	107.03850555419922	91.63441467285156	49.69673538208008
C	106.41295623779297	90.6839370727539	48.74559783935547
O	106.44202423095703	89.45271301269531	48.78322219848633
O	105.67481231689453	91.34579467773438	47.769752502441406
N	106.54654693603516	94.36080169677734	56.92481994628906
C	105.8031005859375	95.037841796875	55.93072509765625
C	104.80742645263672	95.92642974853516	56.52385711669922
C	104.98542022705078	95.85873413085938	57.929161071777344
C	106.10511779785156	94.90504455566406	58.122440338134766
C	103.83464813232422	96.64408874511719	55.70134735107422
C	104.18965148925781	96.42005157470703	59.061546325683594
O	104.49235534667969	96.16731262207031	60.193729400634766
C	102.9170150756836	97.27459716796875	58.74359893798828
N	108.1760482788086	92.6124267578125	58.740013122558594
C	107.61418151855469	93.50371551513672	59.61918640136719
C	108.01644134521484	93.15399169921875	61.03456497192383
C	108.71504974365234	91.81641387939453	60.947261810302734
C	108.92894744873047	91.66384887695312	59.426788330078125
C	109.00830078125	94.30113983154297	61.44947814941406
C	107.96333312988281	90.64925384521484	61.675811767578125
C	106.80061340332031	89.98053741455078	60.81525802612305
N	109.15714263916016	91.27655029296875	56.469581604003906
C	109.8655014038086	90.55377960205078	57.378814697265625
C	110.73772430419922	89.63973236083984	56.7546272277832
C	110.4349594116211	89.72110748291016	55.355873107910156
C	109.53240203857422	90.81756591796875	55.26413345336914
C	111.51988983154297	88.5494155883789	57.433048248291016
C	110.71845245361328	89.22309112548828	54.0369987487793
O	111.57295989990234	88.41732025146484	53.66904830932617
C	109.8343734741211	90.0795669555664	53.110233306884766
C	110.72236633300781	90.7974624633789	52.15745544433594
O	111.47537994384766	91.7995834350586	52.32435607910156
O	110.49076080322266	90.21453094482422	50.95903015136719
C	111.3161392211914	90.68507385253906	49.87682342529297
C	105.65988159179688	90.57219696044922	46.50859451293945
C	105.42724609375	91.50333404541016	45.295166015625
C	105.18441009521484	91.18608093261719	43.98554229736328
C	105.44676971435547	89.81739807128906	43.41843032836914
C	104.93778228759766	92.26485443115234	43.000144958496094
C	103.46198272705078	92.53410339355469	42.58077621459961
C	102.47024536132812	92.88909149169922	43.73565673828125
C	101.01887512207031	92.7314453125	43.383296966552734
C	100.21324157714844	93.4738998413086	44.5222053527832
C	100.50605010986328	91.21967315673828	43.17449188232422
C	99.31007385253906	91.0186767578125	42.213802337646484
C	99.76254272460938	91.0274887084961	40.75970458984375
C	98.62873840332031	90.7973861694336	39.625972747802734
C	97.86244201660156	89.43505859375	39.778533935546875
C	99.08599090576172	91.0567855834961	38.21577072143555
C	99.3910903930664	92.57221984863281	37.84739685058594
C	100.30608367919922	92.68574523925781	36.65705108642578
C	101.73348999023438	92.14485168457031	36.813541412353516
C	102.68475341796875	93.30506134033203	37.33872604370117
C	102.25105285644531	91.61652374267578	35.57478332519531
H	105.66143798828125	95.5714340209961	53.8630485534668
H	106.3331298828125	94.93356323242188	60.28068161010742
H	110.508544921875	90.13131713867188	59.358943939208984
H	108.73371887207031	92.73822784423828	51.76253890991211
H	105.99298095703125	93.80000305175781	51.907466888427734
H	107.63330078125	94.8896713256836	50.742183685302734
H	108.77315521240234	95.01517486572266	52.182289123535156
H	107.25287628173828	95.94676971435547	52.06721878051758
H	105.99799346923828	91.43840026855469	51.698421478271484
H	107.32979583740234	90.37712097167969	51.55341720581055
H	108.08867645263672	91.81062316894531	49.46393585205078
H	106.50700378417969	92.57594299316406	49.558406829833984
H	102.84751892089844	96.31156158447266	56.0224609375
H	103.82018280029297	96.41497802734375	54.63579559326172
H	103.90792083740234	97.69860076904297	55.96727752685547
H	103.32791137695312	98.20835876464844	58.35972213745117
H	102.37045288085938	97.55187225341797	59.644981384277344
H	102.26615142822266	96.73834991455078	58.05302047729492
H	107.14474487304688	93.11211395263672	61.687625885009766
H	109.66643524169922	91.81077575683594	61.479183197021484
H	109.229736328125	94.26777648925781	62.51622772216797
H	109.93485260009766	94.11183166503906	60.907474517822266
H	108.67584228515625	95.28327178955078	61.113319396972656
H	107.66120147705078	90.93730163574219	62.68270492553711
H	108.64673614501953	89.80017852783203	61.687164306640625
H	107.33287048339844	89.54730987548828	59.96842956542969
H	106.04254913330078	90.70922088623047	60.52815246582031
H	106.12776947021484	89.258056640625	61.27723693847656
H	112.5821762084961	88.7843246459961	57.49987030029297
H	111.55522155761719	87.61539459228516	56.872257232666016
H	111.12802124023438	88.32740020751953	58.42564010620117
H	109.17367553710938	89.3794174194336	52.5989875793457
H	110.87052917480469	91.56136322021484	49.406009674072266
H	111.1012954711914	89.95509338378906	49.09638977050781
H	112.3990249633789	90.70687866210938	49.999107360839844
H	104.820068359375	89.90874481201172	46.715110778808594
H	106.62041473388672	90.08513641357422	46.34052276611328
H	105.38890075683594	92.56951904296875	45.51845932006836
H	106.16603088378906	89.88734436035156	42.602420806884766
H	104.5919189453125	89.46804809570312	42.83938980102539
H	105.71631622314453	89.0285873413086	44.12071990966797
H	105.50140380859375	92.0905990600586	42.083595275878906
H	105.39936065673828	93.18709564208984	43.3530387878418
H	103.4836196899414	93.45915985107422	42.004661560058594
H	103.1468505859375	91.69257354736328	41.963829040527344
H	102.72804260253906	92.16353607177734	44.50716018676758
H	102.76519775390625	93.83555603027344	44.18876266479492
H	100.88805389404297	93.17718505859375	42.397239685058594
H	100.51829528808594	93.10986328125	45.50328063964844
H	100.57484436035156	94.50215148925781	44.516048431396484
H	99.14405059814453	93.3152084350586	44.38164520263672
H	101.4321060180664	90.70329284667969	42.92179870605469
H	100.2931137084961	90.78797912597656	44.15244674682617
H	99.0025634765625	89.98551177978516	42.37538146972656
H	98.5025405883789	91.68121337890625	42.52532958984375
H	100.48625946044922	90.21533966064453	40.69076156616211
H	100.36305236816406	91.91895294189453	40.57868576049805
H	97.87770080566406	91.53217315673828	39.91603469848633
H	97.06166076660156	89.12419128417969	39.1075553894043
H	98.6100082397461	88.64188385009766	39.78937530517578
H	97.39566802978516	89.46282958984375	40.76313781738281
H	98.25232696533203	90.80207061767578	37.56138229370117
H	99.84318542480469	90.3095932006836	37.97817611694336
H	99.7486572265625	93.11016845703125	38.72538375854492
H	98.42323303222656	92.97616577148438	37.550437927246094
H	99.8459701538086	91.9637680053711	35.98240280151367
H	100.24695587158203	93.72966766357422	36.3491096496582
H	101.89476013183594	91.41776275634766	37.60942077636719
H	102.95630645751953	94.01200866699219	36.554771423339844
H	102.2946548461914	93.75218200683594	38.253055572509766
H	103.67121887207031	92.9049072265625	37.57301712036133
H	102.19636535644531	92.2988510131836	34.72652053833008
H	101.74651336669922	90.68569946289062	35.315757751464844
H	103.29853057861328	91.32897186279297	35.665367126464844
