280 

Mg	0.0	0.0	0.0
C	3.212451745133885	0.9609183675351815	-0.37079911026774476
C	-0.9950624303614068	3.3539531328780487	-0.07091809943288853
C	-3.227354502148218	-1.0217880905610013	0.12602445721101432
C	0.9106056604595452	-3.3625873636914583	-0.3346329297816076
N	1.0422702590968806	2.004788673084677	-0.060978638772599736
C	2.3935171235118293	2.1178229750650885	-0.2963019921950095
C	2.665840076153064	3.61125317191759	-0.6095108313183054
C	1.3823053442248912	4.360289960325881	-0.057702035736623906
C	0.3975285329475646	3.1904450384795964	-0.012140994553754066
C	1.5803752825221484	4.962154493876586	1.384138198482684
C	2.923184176549412	3.843056198170373	-2.1728984065269064
C	4.221387837633625	4.514784880083047	-2.7111831499311942
C	4.280379647008329	4.348661748366056	-4.264887801249243
O	3.543695941550454	3.6468384453322695	-4.910067013962793
O	5.320935985285894	5.046361185832814	-4.864075358881091
N	-1.8323788242601369	0.9811545912977306	-0.1525004511430339
C	-2.0142827780020007	2.3614229103928612	-0.1250697431997763
C	-3.4671964988187884	2.6318185257455102	-0.197642148485288
C	-4.1422160801619565	1.4102611432936125	-0.1973577761824909
C	-3.0733038034061124	0.37196157860381646	-0.0796638735838707
C	-4.064514894536722	3.9966280002502206	-0.34169204424632715
C	-5.52251544444776	0.932179995796849	-0.3096927981987101
O	-5.747702597675401	-0.16917721646584555	-0.7715156394911089
C	-6.715468495360969	1.7021919030595993	-0.08367950561005036
N	-1.0051557070344364	-1.8768184446919138	-0.060978638772599854
C	-2.3118288031642003	-2.0087390697406082	0.17362311546337555
C	-2.7016754295055634	-3.430801937138585	0.5848924488567343
C	-1.4550622413989867	-4.232159651493777	0.09401451447650702
C	-0.39278349799311185	-3.1091738398684403	-0.052328532486320856
C	-3.0430034230473715	-3.522625020946653	2.102013270994978
C	-1.634476359758012	-4.90785236903236	-1.2887806472909098
C	-1.6313262965632276	-3.848842866585846	-2.3702218187660167
N	1.708717333364918	-1.0708161231225783	-0.15250045114303384
C	1.9567019402249433	-2.3901248285944936	-0.42880453852104505
C	3.3246411141812877	-2.549677303870482	-0.7820469827366832
C	3.8967582579224342	-1.3029824301765063	-0.7161948548912405
C	2.8616654761630573	-0.41531937586788653	-0.3162109051201922
C	3.970733510940645	-3.797937967551191	-1.234643061062602
C	5.074316693155806	-0.5451829841093546	-0.8004995744084754
O	6.215524158091488	-0.926764706522767	-0.9451644708124703
C	4.744502212994644	0.9827302259460149	-0.5804380957367484
C	5.267074384035055	1.5286934668296408	-1.8731541673358596
O	4.712877654280264	1.4899159512848856	-2.946408170980247
O	6.57270490297295	1.961781376814653	-1.6968203786100327
C	7.380908899830598	2.1480831856429368	-2.8955993680884626
C	5.514269570312803	4.791004821217518	-6.305540027873023
C	6.348584477865215	5.9839466819368825	-6.763708873836393
C	7.47605357163196	6.462377814036775	-6.18678121880606
C	8.161152136911234	5.853437361700798	-4.95107283197746
C	8.155063307773695	7.702010235243665	-6.723658790267525
C	9.535819755762427	7.462091157435316	-7.455559548290636
C	9.32900007424112	6.891846061467178	-8.903284435767905
C	9.813119294515323	7.974367172808227	-9.923334173768291
C	8.810838969372147	9.143959156221062	-9.833865605042677
C	10.006842649543977	7.365270827892939	-11.340684438838379
C	11.12239538374783	8.02689963464558	-12.058146900208635
C	11.247509237386037	7.484181814392401	-13.50583156117391
C	12.589283903763787	7.88275872397831	-14.210843579433288
C	12.29872412985036	8.472947364636902	-15.57952866665633
C	13.505372509191856	6.658385914491449	-14.312667771893283
C	13.906145593507702	6.26157821734554	-12.897998903526338
C	13.529651472075933	4.875911822979	-12.248991642630346
C	12.206877510161465	4.099200302516463	-12.472134272065105
C	12.142876844850969	2.9086289268777263	-11.514121591679606
C	11.963391809534489	3.6808121788118076	-13.947903444577484
H	-1.3702698333650445	4.390539156258487	-0.01681760144625848
H	-4.2666567886939175	-1.3270323986176973	0.27504162171879565
H	1.2182790140846582	-4.397598591506266	-0.47773416005719704
H	3.610059199464418	3.8505477630688176	-0.08346320175190927
H	0.9224999163289586	5.07947368298017	-0.7642895031040344
H	0.6465278097148803	5.400246777752232	1.7868563417717833
H	2.3568757477485045	5.736557237845535	1.267144475709487
H	1.8952274293854217	4.118661757933772	2.0288572208335904
H	2.061781918777463	4.44145705965511	-2.5242031445184354
H	2.776965792991799	2.8620316065506466	-2.6647696774521155
H	5.121563394120367	4.069701971556427	-2.2541941350880026
H	4.290395046064151	5.600394100288478	-2.5216156085580588
H	-4.828440901071881	3.9798910094851068	-1.1349489899874872
H	-3.2996085654439335	4.7532057001241945	-0.554878582654894
H	-4.5464172537152026	4.265097440527061	0.6098670794364651
H	-6.6588061611884495	2.4761328149810318	0.6929623822513771
H	-7.520492355688273	1.0125804616839658	0.1980959990125552
H	-7.036189464972363	2.1581400355041658	-1.029271889549611
H	-3.6085321624603646	-3.7537108438972795	0.06361796941996643
H	-1.1202463825007267	-4.939788169548086	0.8587683146395974
H	-4.056387340075949	-3.8391842382265535	2.3556634614627536
H	-2.907151673190722	-2.5464669235062187	2.58111196037249
H	-2.299400764000508	-4.184985726524936	2.5514416436794716
H	-2.5280684963392885	-5.534651679134921	-1.3671982529399627
H	-0.7630039227405627	-5.547011449928252	-1.451538740201765
H	-0.6783348920970226	-3.344547360711298	-2.502982480082463
H	-2.543508152214605	-3.241242816875168	-2.307664122963903
H	-1.7551652089496925	-4.338859937451943	-3.340026653072789
H	3.286699863133685	-4.639294732651099	-1.3680091385440836
H	4.819684144217453	-4.050163670362906	-0.5942886700391039
H	4.4142184998107	-3.5916024302089755	-2.215718976592971
H	5.396365637223924	1.3907509171015071	0.2068965488905812
H	8.464457821463	2.060548478278222	-2.7064723089258393
H	7.263407261924407	3.1727668038786794	-3.291049258215435
H	7.138297993549182	1.4376567558903397	-3.7011961358362755
H	4.539393998856516	4.756639294209078	-6.816226294757269
H	6.041106976009547	3.820794179333258	-6.33638886878637
H	5.964534768743809	6.600038642320763	-7.590697000083523
H	7.726087682602454	6.279991588090988	-4.033391674164749
H	9.244522749854102	6.039865340847959	-4.946145532134586
H	7.960614026200182	4.777508895522972	-4.885529383620266
H	8.282873330972649	8.3668426244462	-5.856455998796124
H	7.491722639609707	8.250795278928008	-7.407884253652297
H	10.186684427132029	6.780324941276761	-6.888605017274995
H	10.066455973375282	8.422901078484214	-7.500996659573805
H	8.25349844543106	6.695673762326034	-9.00729679999444
H	9.857979379917793	5.943130079283162	-9.070374546095096
H	10.7629113921897	8.398402541550196	-9.591299582204593
H	7.820950357383287	8.685859380725404	-9.758240369858843
H	8.842934455001345	9.83433835811993	-10.681421340876891
H	9.011383600507044	9.763456317926915	-8.946888427844252
H	9.126601008631402	7.478314216001665	-11.979369497512744
H	10.07493116841729	6.266773267686745	-11.285202604873389
H	12.070299354300742	7.868971620063394	-11.525390081718422
H	10.928799626280387	9.107280420873616	-12.051907359818395
H	10.449174190553839	7.79496853955672	-14.18037127516554
H	11.158519803222612	6.397839804189144	-13.439289432512188
H	13.103256901232523	8.62735614876336	-13.59169572091505
H	12.15634645787802	7.741265225161528	-16.38011229347782
H	13.188980029296841	9.027218484247095	-15.887393232539235
H	11.422275868626283	9.123756690073906	-15.53220982148082
H	14.412353303173242	6.940380945418416	-14.860357591917532
H	13.028764345522076	5.872823794072345	-14.903307917418896
H	13.587739615503137	7.064773727024857	-12.22719595574436
H	14.997467608378969	6.3320237465827525	-12.854656830222995
H	13.617623600994564	5.04935917151323	-11.17349912624604
H	14.344556886772141	4.196878612660962	-12.530372906344619
H	11.428724164253941	4.791831135619432	-12.151213412259107
H	11.367372833574292	3.0609386330456343	-10.767316005289384
H	13.06829482049331	2.874198794909038	-10.934767562343302
H	11.956687013923554	1.9580606420387534	-12.013077565983911
H	11.235874943343607	2.8673105152795157	-13.993692395901292
H	12.887988306514513	3.4334592630724425	-14.480854275043928
H	11.48486716668315	4.5517429994355405	-14.370935969471773
Mg	0.0	0.0	20.0
C	3.212451745133885	0.9609183675351815	19.629200889732257
C	-0.9950624303614068	3.3539531328780487	19.929081900567112
C	-3.227354502148218	-1.0217880905610013	20.126024457211013
C	0.9106056604595452	-3.3625873636914583	19.66536707021839
N	1.0422702590968806	2.004788673084677	19.9390213612274
C	2.3935171235118293	2.1178229750650885	19.70369800780499
C	2.665840076153064	3.61125317191759	19.390489168681693
C	1.3823053442248912	4.360289960325881	19.942297964263375
C	0.3975285329475646	3.1904450384795964	19.987859005446246
C	1.5803752825221484	4.962154493876586	21.384138198482685
C	2.923184176549412	3.843056198170373	17.827101593473095
C	4.221387837633625	4.514784880083047	17.288816850068805
C	4.280379647008329	4.348661748366056	15.735112198750757
O	3.543695941550454	3.6468384453322695	15.089932986037207
O	5.320935985285894	5.046361185832814	15.135924641118908
N	-1.8323788242601369	0.9811545912977306	19.847499548856966
C	-2.0142827780020007	2.3614229103928612	19.874930256800223
C	-3.4671964988187884	2.6318185257455102	19.802357851514714
C	-4.1422160801619565	1.4102611432936125	19.80264222381751
C	-3.0733038034061124	0.37196157860381646	19.920336126416128
C	-4.064514894536722	3.9966280002502206	19.658307955753674
C	-5.52251544444776	0.932179995796849	19.69030720180129
O	-5.747702597675401	-0.16917721646584555	19.22848436050889
C	-6.715468495360969	1.7021919030595993	19.91632049438995
N	-1.0051557070344364	-1.8768184446919138	19.9390213612274
C	-2.3118288031642003	-2.0087390697406082	20.173623115463375
C	-2.7016754295055634	-3.430801937138585	20.584892448856735
C	-1.4550622413989867	-4.232159651493777	20.094014514476505
C	-0.39278349799311185	-3.1091738398684403	19.94767146751368
C	-3.0430034230473715	-3.522625020946653	22.102013270994977
C	-1.634476359758012	-4.90785236903236	18.71121935270909
C	-1.6313262965632276	-3.848842866585846	17.629778181233984
N	1.708717333364918	-1.0708161231225783	19.847499548856966
C	1.9567019402249433	-2.3901248285944936	19.571195461478954
C	3.3246411141812877	-2.549677303870482	19.217953017263316
C	3.8967582579224342	-1.3029824301765063	19.283805145108758
C	2.8616654761630573	-0.41531937586788653	19.683789094879806
C	3.970733510940645	-3.797937967551191	18.765356938937398
C	5.074316693155806	-0.5451829841093546	19.199500425591523
O	6.215524158091488	-0.926764706522767	19.054835529187528
C	4.744502212994644	0.9827302259460149	19.41956190426325
C	5.267074384035055	1.5286934668296408	18.12684583266414
O	4.712877654280264	1.4899159512848856	17.05359182901975
O	6.57270490297295	1.961781376814653	18.30317962138997
C	7.380908899830598	2.1480831856429368	17.10440063191154
C	5.514269570312803	4.791004821217518	13.694459972126978
C	6.348584477865215	5.9839466819368825	13.236291126163607
C	7.47605357163196	6.462377814036775	13.813218781193939
C	8.161152136911234	5.853437361700798	15.04892716802254
C	8.155063307773695	7.702010235243665	13.276341209732475
C	9.535819755762427	7.462091157435316	12.544440451709363
C	9.32900007424112	6.891846061467178	11.096715564232095
C	9.813119294515323	7.974367172808227	10.076665826231709
C	8.810838969372147	9.143959156221062	10.166134394957323
C	10.006842649543977	7.365270827892939	8.659315561161621
C	11.12239538374783	8.02689963464558	7.941853099791365
C	11.247509237386037	7.484181814392401	6.49416843882609
C	12.589283903763787	7.88275872397831	5.789156420566712
C	12.29872412985036	8.472947364636902	4.42047133334367
C	13.505372509191856	6.658385914491449	5.687332228106717
C	13.906145593507702	6.26157821734554	7.102001096473662
C	13.529651472075933	4.875911822979	7.751008357369654
C	12.206877510161465	4.099200302516463	7.527865727934895
C	12.142876844850969	2.9086289268777263	8.485878408320394
C	11.963391809534489	3.6808121788118076	6.052096555422516
H	-1.3702698333650445	4.390539156258487	19.98318239855374
H	-4.2666567886939175	-1.3270323986176973	20.275041621718795
H	1.2182790140846582	-4.397598591506266	19.522265839942804
H	3.610059199464418	3.8505477630688176	19.916536798248092
H	0.9224999163289586	5.07947368298017	19.235710496895965
H	0.6465278097148803	5.400246777752232	21.786856341771784
H	2.3568757477485045	5.736557237845535	21.267144475709486
H	1.8952274293854217	4.118661757933772	22.02885722083359
H	2.061781918777463	4.44145705965511	17.475796855481565
H	2.776965792991799	2.8620316065506466	17.335230322547886
H	5.121563394120367	4.069701971556427	17.745805864911997
H	4.290395046064151	5.600394100288478	17.478384391441942
H	-4.828440901071881	3.9798910094851068	18.865051010012515
H	-3.2996085654439335	4.7532057001241945	19.445121417345106
H	-4.5464172537152026	4.265097440527061	20.609867079436466
H	-6.6588061611884495	2.4761328149810318	20.692962382251377
H	-7.520492355688273	1.0125804616839658	20.198095999012555
H	-7.036189464972363	2.1581400355041658	18.970728110450388
H	-3.6085321624603646	-3.7537108438972795	20.063617969419965
H	-1.1202463825007267	-4.939788169548086	20.858768314639597
H	-4.056387340075949	-3.8391842382265535	22.355663461462754
H	-2.907151673190722	-2.5464669235062187	22.58111196037249
H	-2.299400764000508	-4.184985726524936	22.55144164367947
H	-2.5280684963392885	-5.534651679134921	18.632801747060036
H	-0.7630039227405627	-5.547011449928252	18.548461259798234
H	-0.6783348920970226	-3.344547360711298	17.497017519917538
H	-2.543508152214605	-3.241242816875168	17.692335877036097
H	-1.7551652089496925	-4.338859937451943	16.65997334692721
H	3.286699863133685	-4.639294732651099	18.631990861455918
H	4.819684144217453	-4.050163670362906	19.405711329960894
H	4.4142184998107	-3.5916024302089755	17.78428102340703
H	5.396365637223924	1.3907509171015071	20.20689654889058
H	8.464457821463	2.060548478278222	17.29352769107416
H	7.263407261924407	3.1727668038786794	16.708950741784566
H	7.138297993549182	1.4376567558903397	16.298803864163723
H	4.539393998856516	4.756639294209078	13.183773705242732
H	6.041106976009547	3.820794179333258	13.66361113121363
H	5.964534768743809	6.600038642320763	12.409302999916477
H	7.726087682602454	6.279991588090988	15.966608325835251
H	9.244522749854102	6.039865340847959	15.053854467865413
H	7.960614026200182	4.777508895522972	15.114470616379734
H	8.282873330972649	8.3668426244462	14.143544001203875
H	7.491722639609707	8.250795278928008	12.592115746347703
H	10.186684427132029	6.780324941276761	13.111394982725006
H	10.066455973375282	8.422901078484214	12.499003340426196
H	8.25349844543106	6.695673762326034	10.99270320000556
H	9.857979379917793	5.943130079283162	10.929625453904904
H	10.7629113921897	8.398402541550196	10.408700417795407
H	7.820950357383287	8.685859380725404	10.241759630141157
H	8.842934455001345	9.83433835811993	9.318578659123109
H	9.011383600507044	9.763456317926915	11.053111572155748
H	9.126601008631402	7.478314216001665	8.020630502487256
H	10.07493116841729	6.266773267686745	8.714797395126611
H	12.070299354300742	7.868971620063394	8.474609918281578
H	10.928799626280387	9.107280420873616	7.9480926401816046
H	10.449174190553839	7.79496853955672	5.819628724834461
H	11.158519803222612	6.397839804189144	6.560710567487812
H	13.103256901232523	8.62735614876336	6.40830427908495
H	12.15634645787802	7.741265225161528	3.6198877065221815
H	13.188980029296841	9.027218484247095	4.112606767460765
H	11.422275868626283	9.123756690073906	4.467790178519181
H	14.412353303173242	6.940380945418416	5.139642408082468
H	13.028764345522076	5.872823794072345	5.096692082581104
H	13.587739615503137	7.064773727024857	7.77280404425564
H	14.997467608378969	6.3320237465827525	7.145343169777005
H	13.617623600994564	5.04935917151323	8.82650087375396
H	14.344556886772141	4.196878612660962	7.469627093655381
H	11.428724164253941	4.791831135619432	7.848786587740893
H	11.367372833574292	3.0609386330456343	9.232683994710616
H	13.06829482049331	2.874198794909038	9.065232437656698
H	11.956687013923554	1.9580606420387534	7.986922434016089
H	11.235874943343607	2.8673105152795157	6.0063076040987085
H	12.887988306514513	3.4334592630724425	5.519145724956072
H	11.48486716668315	4.5517429994355405	5.629064030528227
