280 

Mg	90.41442108154297	54.8155403137207	56.44544219970703
C	91.691162109375	56.65029525756836	53.86989212036133
C	88.07832336425781	53.35270309448242	54.267635345458984
C	89.34841918945312	52.777183532714844	58.946781158447266
C	92.34180450439453	56.58341979980469	58.71434783935547
N	90.10675048828125	54.88554000854492	54.336429595947266
C	90.7701187133789	55.66873550415039	53.44011306762695
C	90.21723937988281	55.36991882324219	51.98612976074219
C	88.83223724365234	54.71146011352539	52.262542724609375
C	89.02838897705078	54.27816390991211	53.7386474609375
C	87.64620971679688	55.65284729003906	52.0347785949707
C	91.24275970458984	54.574275970458984	51.068519592285156
C	90.56915283203125	54.00529479980469	49.784324645996094
C	91.39319610595703	53.13396072387695	48.76424789428711
O	92.10395812988281	52.16400909423828	49.04670333862305
O	91.1226577758789	53.47981262207031	47.42934799194336
N	89.02140808105469	53.289852142333984	56.602752685546875
C	88.11546325683594	52.90797805786133	55.636898040771484
C	87.12994384765625	52.04420471191406	56.188018798828125
C	87.42484283447266	51.87434768676758	57.54364013671875
C	88.64448547363281	52.684417724609375	57.751060485839844
C	86.18462371826172	51.202186584472656	55.391441345214844
C	86.71604919433594	51.0941276550293	58.662418365478516
O	87.14957427978516	51.031246185302734	59.800811767578125
C	85.3456802368164	50.60430145263672	58.42268371582031
N	90.85778045654297	54.66300582885742	58.483055114746094
C	90.25636291503906	53.69907760620117	59.30393600463867
C	90.79505157470703	53.78614044189453	60.736576080322266
C	91.744384765625	55.10498809814453	60.74855422973633
C	91.5469741821289	55.54986572265625	59.244876861572266
C	89.72367095947266	53.82545471191406	61.9511604309082
C	93.14453125	54.9788703918457	61.264366149902344
C	93.22758483886719	54.387630462646484	62.6792106628418
N	91.6194839477539	56.31325149536133	56.367374420166016
C	92.38595581054688	56.948455810546875	57.36739730834961
C	93.23601531982422	57.94175720214844	56.73331832885742
C	92.9462890625	57.854522705078125	55.39764404296875
C	92.01763153076172	56.82005310058594	55.216575622558594
C	94.09904479980469	58.968406677246094	57.4647102355957
C	93.32382202148438	58.47892379760742	54.16513442993164
O	94.1628189086914	59.33730697631836	53.81700134277344
C	92.47074890136719	57.73941421508789	53.07277297973633
C	91.5306167602539	58.68832015991211	52.45536804199219
O	90.74462127685547	59.480491638183594	52.921966552734375
O	91.69124603271484	58.518733978271484	51.172996520996094
C	90.81122589111328	59.30145263671875	50.259483337402344
C	91.60745239257812	52.53022766113281	46.4631233215332
C	90.50926971435547	51.592002868652344	45.9615478515625
C	89.21824645996094	51.84971618652344	45.684505462646484
C	88.45413970947266	53.187538146972656	45.739906311035156
C	88.26226043701172	50.77122116088867	45.2504768371582
C	88.92007446289062	49.38261032104492	45.05680465698242
C	87.93948364257812	48.28338623046875	44.753570556640625
C	87.29759979248047	47.481380462646484	45.95658874511719
C	88.29263305664062	46.70493698120117	46.85068130493164
C	86.04244232177734	46.673065185546875	45.52863693237305
C	84.83158874511719	47.46488952636719	44.951560974121094
C	84.26556396484375	48.51001739501953	45.899166107177734
C	82.97977447509766	49.25912857055664	45.41002655029297
C	81.80912780761719	48.251243591308594	45.03148651123047
C	83.28326416015625	50.2867546081543	44.308860778808594
C	82.12654113769531	51.224212646484375	43.84095001220703
C	81.5931625366211	51.98737716674805	45.072731018066406
C	80.47615814208984	53.017635345458984	44.847259521484375
C	80.93165588378906	54.32029342651367	44.06753158569336
C	79.69929504394531	53.472755432128906	46.12969970703125
H	87.32453918457031	53.081050872802734	53.525699615478516
H	89.04605865478516	52.13142013549805	59.773834228515625
H	93.02291107177734	57.1662483215332	59.337955474853516
H	90.16304016113281	56.35932922363281	51.532005310058594
H	88.66934967041016	53.78120803833008	51.718299865722656
H	87.80711364746094	56.61065673828125	52.52956771850586
H	86.6866683959961	55.25851821899414	52.369285583496094
H	87.57701110839844	55.755958557128906	50.95187759399414
H	91.47525024414062	53.653236389160156	51.603057861328125
H	92.08268737792969	55.24968719482422	50.90591049194336
H	90.19187927246094	54.8963508605957	49.28253936767578
H	89.60979461669922	53.510250091552734	49.934879302978516
H	85.19602966308594	51.6281852722168	55.56259536743164
H	86.13282775878906	50.17118835449219	55.74138259887695
H	86.32689666748047	51.16604232788086	54.311370849609375
H	84.85388946533203	50.666053771972656	59.39347839355469
H	85.40251922607422	49.59413528442383	58.01719284057617
H	84.89562225341797	51.373600006103516	57.795204162597656
H	91.4222640991211	52.902889251708984	60.8573112487793
H	91.27955627441406	55.856014251708984	61.38729476928711
H	89.17015838623047	52.903175354003906	61.77474594116211
H	90.2699966430664	53.934173583984375	62.88807678222656
H	89.18853759765625	54.7562370300293	61.7630729675293
H	93.66866302490234	55.93391036987305	61.22829055786133
H	93.68218231201172	54.313106536865234	60.58925247192383
H	94.28229522705078	54.30953598022461	62.943016052246094
H	92.80677032470703	53.382144927978516	62.67963790893555
H	92.76294708251953	54.95457077026367	63.48592758178711
H	94.32627868652344	58.74290084838867	58.50662612915039
H	93.53105163574219	59.89620590209961	57.39627456665039
H	95.031005859375	59.22772216796875	56.96240997314453
H	93.0818862915039	57.17826843261719	52.365840911865234
H	91.08735656738281	59.16465377807617	49.213958740234375
H	90.77081298828125	60.3571662902832	50.5277214050293
H	89.83523559570312	58.82369613647461	50.34490203857422
H	92.58868408203125	52.08361053466797	46.62380599975586
H	91.91313934326172	53.11376953125	45.59470748901367
H	90.91686248779297	50.58243179321289	45.90926742553711
H	88.1971664428711	53.45512008666992	44.714988708496094
H	89.13219451904297	53.95736312866211	46.10831832885742
H	87.56087493896484	53.2572135925293	46.360626220703125
H	87.7621078491211	51.098594665527344	44.339012145996094
H	87.42774963378906	50.68528747558594	45.946388244628906
H	89.50715637207031	49.4083366394043	44.13877487182617
H	89.52307891845703	49.108131408691406	45.9223518371582
H	87.12474822998047	48.7252197265625	44.17991256713867
H	88.44071197509766	47.52197265625	44.15597915649414
H	86.99212646484375	48.254493713378906	46.661624908447266
H	89.0998764038086	47.30815505981445	47.26612854003906
H	87.75696563720703	46.170623779296875	47.63532638549805
H	88.88825988769531	46.02065658569336	46.24646759033203
H	86.32637786865234	45.936580657958984	44.77691650390625
H	85.68855285644531	46.1092529296875	46.391754150390625
H	85.0784683227539	47.93183135986328	43.99808883666992
H	83.96979522705078	46.85596466064453	44.678428649902344
H	85.11186218261719	49.18693161010742	46.01604080200195
H	84.0601806640625	47.920249938964844	46.79252624511719
H	82.60482025146484	49.80389404296875	46.27647399902344
H	81.8501205444336	47.22847366333008	45.40614700317383
H	80.81005096435547	48.63374710083008	45.240379333496094
H	81.78805541992188	48.161712646484375	43.94537353515625
H	83.67156219482422	49.757965087890625	43.438392639160156
H	83.98136138916016	50.944175720214844	44.82707977294922
H	81.40216827392578	50.62351608276367	43.2909049987793
H	82.58091735839844	51.906837463378906	43.12284851074219
H	81.05816650390625	51.28407287597656	45.710906982421875
H	82.33802032470703	52.50877380371094	45.67392349243164
H	79.6776123046875	52.603965759277344	44.23139190673828
H	80.13406372070312	55.05457305908203	43.95448303222656
H	81.83051300048828	54.79316329956055	44.463199615478516
H	81.15205383300781	53.96175765991211	43.06205368041992
H	79.24925994873047	52.54606246948242	46.48579406738281
H	78.85565948486328	54.09912109375	45.83977127075195
H	80.41104125976562	53.90224075317383	46.834712982177734
Mg	81.54755401611328	55.360050201416016	56.833648681640625
C	79.40763854980469	55.041236877441406	54.221595764160156
C	84.1941909790039	55.95021057128906	54.53028106689453
C	83.77349090576172	55.43275833129883	59.42695999145508
C	78.95606231689453	54.696922302246094	59.07379150390625
N	81.8155288696289	55.44255828857422	54.71192932128906
C	80.77775573730469	55.31086730957031	53.788204193115234
C	81.24169921875	55.49703598022461	52.34388732910156
C	82.73578643798828	55.664573669433594	52.52475357055664
C	82.95098876953125	55.79997634887695	53.996551513671875
C	83.59276580810547	54.46454620361328	51.89466857910156
C	80.53536987304688	56.620445251464844	51.56110763549805
C	80.89179229736328	56.50202178955078	50.08709716796875
C	80.5184097290039	57.61676788330078	49.14253234863281
O	79.99337005615234	58.69336700439453	49.36342239379883
O	81.04707336425781	57.2865104675293	47.935428619384766
N	83.54106903076172	55.81169509887695	57.03733825683594
C	84.49700927734375	55.987281799316406	55.95344924926758
C	85.83560943603516	56.2388801574707	56.574039459228516
C	85.73274230957031	56.05048751831055	57.963905334472656
C	84.32542419433594	55.79536437988281	58.18880081176758
C	87.07965850830078	56.44968032836914	55.65568923950195
C	86.82524871826172	56.073326110839844	59.06537628173828
O	86.56367492675781	55.75767517089844	60.24619674682617
C	88.26683044433594	56.414337158203125	58.76888656616211
N	81.36285400390625	55.24053955078125	58.95431137084961
C	82.4366683959961	55.30012130737305	59.74250793457031
C	82.04295349121094	55.0916633605957	61.25638961791992
C	80.47764587402344	55.223472595214844	61.183204650878906
C	80.21155548095703	55.055137634277344	59.696510314941406
C	82.53559112548828	53.76298904418945	61.98965072631836
C	79.83332061767578	56.51700973510742	61.70722961425781
C	80.41695404052734	57.791908264160156	60.96128845214844
N	79.61463928222656	54.871070861816406	56.73359298706055
C	78.66497039794922	54.6323356628418	57.679344177246094
C	77.39085388183594	54.36558532714844	57.005672454833984
C	77.64781951904297	54.53191375732422	55.695518493652344
C	78.99493408203125	54.86854553222656	55.58618927001953
C	76.0623779296875	53.991966247558594	57.66219711303711
C	77.0694580078125	54.341941833496094	54.341007232666016
O	75.95050048828125	53.968711853027344	53.98643112182617
C	78.20967864990234	54.82080078125	53.347900390625
C	78.2605972290039	53.647422790527344	52.3519287109375
O	78.19931030273438	52.44580078125	52.559852600097656
O	78.27826690673828	54.16164779663086	51.04802703857422
C	78.16627502441406	53.192325592041016	49.94396209716797
C	80.96878051757812	58.41323471069336	46.9534912109375
C	81.58622741699219	57.97264862060547	45.661224365234375
C	81.10107421875	57.91585922241211	44.42234802246094
C	79.63202667236328	58.337059020996094	44.0259895324707
C	82.08291625976562	57.437435150146484	43.28500747680664
C	82.793701171875	58.638797760009766	42.64493942260742
C	84.04428100585938	58.972328186035156	43.50898742675781
C	84.76493835449219	60.27375030517578	43.062625885009766
C	86.2300033569336	60.44746017456055	43.609928131103516
C	84.01315307617188	61.536529541015625	43.51301574707031
C	84.47852325439453	62.83020782470703	42.8415641784668
C	84.02014923095703	62.90849685668945	41.37161636352539
C	84.5790786743164	64.16182708740234	40.56369400024414
C	83.96178436279297	65.4610366821289	41.08480453491211
C	84.30716705322266	64.13199615478516	39.05302429199219
C	85.28092193603516	63.19743728637695	38.26815414428711
C	85.00895690917969	62.946659088134766	36.78117370605469
C	83.67606353759766	62.143497467041016	36.58543014526367
C	83.74824523925781	60.6922492980957	37.303016662597656
C	83.43978881835938	62.06907653808594	35.110233306884766
H	85.05184936523438	56.08467483520508	53.86785888671875
H	84.27432250976562	55.324092864990234	60.391239166259766
H	78.13349914550781	54.45232009887695	59.74908447265625
H	81.08171081542969	54.491966247558594	51.953582763671875
H	83.1411361694336	56.533756256103516	52.00675582885742
H	84.60433959960938	54.85016632080078	52.021644592285156
H	83.39541625976562	54.41911697387695	50.823646545410156
H	83.29116821289062	53.58761215209961	52.46749496459961
H	80.8030014038086	57.63351058959961	51.86141586303711
H	79.4471435546875	56.58565139770508	51.612640380859375
H	80.42195129394531	55.587791442871094	49.72439193725586
H	81.97001647949219	56.35725402832031	50.01960754394531
H	87.45464324951172	55.42701721191406	55.61513900756836
H	87.8054428100586	57.1053352355957	56.136783599853516
H	86.82601165771484	56.74554443359375	54.63773727416992
H	88.36756896972656	57.4973258972168	58.697547912597656
H	88.54979705810547	55.787601470947266	57.92317199707031
H	88.85818481445312	56.033626556396484	59.601627349853516
H	82.55370330810547	55.86796569824219	61.82612991333008
H	80.00350952148438	54.36735534667969	61.66316604614258
H	81.97901916503906	53.758636474609375	62.92683029174805
H	82.36070251464844	52.802635192871094	61.50463104248047
H	83.56212615966797	53.9881591796875	62.27880096435547
H	79.96488952636719	56.56258010864258	62.788299560546875
H	78.76842498779297	56.55500411987305	61.4777717590332
H	80.25067138671875	57.979522705078125	59.900508880615234
H	81.48394775390625	57.85734558105469	61.17424774169922
H	79.99577331542969	58.67621994018555	61.439517974853516
H	75.88660430908203	52.92407989501953	57.53249740600586
H	75.21287536621094	54.44454574584961	57.15071105957031
H	75.85509490966797	54.38682556152344	58.65679168701172
H	77.84086608886719	55.696598052978516	52.81399154663086
H	78.2026138305664	53.730464935302734	48.996768951416016
H	77.27877807617188	52.562469482421875	50.00509262084961
H	79.03669738769531	52.54193115234375	50.030303955078125
H	81.59461212158203	59.233516693115234	47.30503463745117
H	79.92908477783203	58.7092399597168	46.81380844116211
H	82.58700561523438	57.562347412109375	45.79607391357422
H	78.99143981933594	58.293663024902344	44.90681457519531
H	79.28128051757812	57.75947570800781	43.170719146728516
H	79.73348999023438	59.36256790161133	43.67082595825195
H	81.53330993652344	57.041404724121094	42.43107604980469
H	82.82594299316406	56.706695556640625	43.60443878173828
H	83.12753295898438	58.489967346191406	41.61804962158203
H	82.03126525878906	59.417091369628906	42.612613677978516
H	83.83185577392578	59.14451599121094	44.56412887573242
H	84.73027038574219	58.12533950805664	43.52031326293945
H	85.05250549316406	60.25926208496094	42.0113410949707
H	86.23455810546875	60.775569915771484	44.64936065673828
H	86.78116607666016	59.509254455566406	43.54608917236328
H	86.84300231933594	61.142784118652344	43.03647994995117
H	82.9294204711914	61.42496109008789	43.47875213623047
H	84.2498779296875	61.75705337524414	44.55389404296875
H	84.06981658935547	63.660884857177734	43.41692352294922
H	85.5471420288086	63.00233459472656	42.97004318237305
H	82.95399475097656	62.83150100708008	41.15833282470703
H	84.48495483398438	62.07979202270508	40.83748245239258
H	85.63687133789062	64.22770690917969	40.81825637817383
H	83.00448608398438	65.47046661376953	40.56365966796875
H	83.82270050048828	65.43032836914062	42.16545867919922
H	84.58076477050781	66.34153747558594	40.91250991821289
H	84.52214050292969	65.05642700195312	38.517024993896484
H	83.27567291259766	63.82063293457031	38.88821792602539
H	85.28606414794922	62.234580993652344	38.779029846191406
H	86.31484985351562	63.535743713378906	38.336307525634766
H	84.81098937988281	63.900943756103516	36.29306411743164
H	85.72200775146484	62.3176155090332	36.248287200927734
H	82.79206848144531	62.572837829589844	37.05696105957031
H	84.68238067626953	60.13123321533203	37.27473831176758
H	83.53237915039062	60.8187255859375	38.36391067504883
H	83.04252624511719	60.020408630371094	36.814449310302734
H	82.52281188964844	61.523441314697266	34.88765335083008
H	84.12139892578125	61.42796325683594	34.551231384277344
H	83.38630676269531	63.01481628417969	34.57095718383789
